Circuit: * C:\users\joaoantoniocardoso\Desktop\Dropbox\IFSC\Documentos\2019-1\SCT2\sct2_projeto1\hardware\simulations\Draft1_tf.asc

WARNING: Node OUT is floating.

WARNING: Less than two connections to node OUT.  This node is used by R2.
WARNING: Less than two connections to node NC_01.  This node is used by V2.
WARNING: Less than two connections to node NC_02.  This node is used by R3.
.OP point found by inspection.

Date: Fri May 03 14:09:03 2019
Total elapsed time: 0.093 seconds.

tnom = 27
temp = 27
method = modified trap
totiter = 1488
traniter = 1488
tranpoints = 745
accept = 701
rejected = 44
matrix size = 8
fillins = 0
solver = Alternate
Matrix Compiler1: 236 bytes object code size  0.9/0.8/[0.8]
Matrix Compiler2: 492 bytes object code size  0.9/0.9/[0.8]

