Circuit: * C:\users\joaoantoniocardoso\Desktop\Dropbox\IFSC\Documentos\2019-1\SCT2\sct2_projeto1\hardware\simulations\Draft1.asc

.OP point found by inspection.

Date: Fri May 03 11:45:01 2019
Total elapsed time: 0.080 seconds.

tnom = 27
temp = 27
method = modified trap
totiter = 2158
traniter = 2158
tranpoints = 1080
accept = 961
rejected = 119
matrix size = 3
fillins = 0
solver = Alternate
Matrix Compiler1: 56 bytes object code size  0.5/0.5/[0.4]
Matrix Compiler2: 197 bytes object code size  0.5/0.5/[0.4]

