Circuit: * C:\users\joaoantoniocardoso\Desktop\Dropbox\IFSC\Documentos\2019-1\SCT2\sct2_projeto1\hardware\simulations\planta_equivalente_alimentacao_simples.asc

WARNING: Less than two connections to node NC_01.  This node is used by V§SIG.
WARNING: Less than two connections to node VCC2.  This node is used by V2.
Per .tran options, skipping operating point for transient analysis.
Changing Tseed to 1e-010
Changing Tseed to 1e-012
Changing Tseed to 1e-009
Changing Tseed to 1e-013
Changing Tseed to 1e-008
Changing Tseed to 1e-014
Changing Tseed to 1e-007
Changing Tseed to 1e-015
Changing Tseed to 1e-006
Changing Tseed to 1e-016
Changing Tseed to 1e-005
Changing Tseed to 1e-017
Heightened Def Con from 0 Changing Tseed to 1e-010
Changing Tseed to 1e-012
Changing Tseed to 1e-009
Changing Tseed to 1e-013
Changing Tseed to 1e-008
Changing Tseed to 1e-014
Changing Tseed to 1e-007
Changing Tseed to 1e-015
Changing Tseed to 1e-006
Changing Tseed to 1e-016
Changing Tseed to 1e-005
Changing Tseed to 1e-017
+Changing Tseed to 1e-010
Changing Tseed to 1e-012
Changing Tseed to 1e-009
Changing Tseed to 1e-013
Changing Tseed to 1e-008
Changing Tseed to 1e-014
Changing Tseed to 1e-007
Changing Tseed to 1e-015
Changing Tseed to 1e-006
Changing Tseed to 1e-016
Changing Tseed to 1e-005
Changing Tseed to 1e-017
+Changing Tseed to 1e-010
Changing Tseed to 1e-012
Changing Tseed to 1e-009
Changing Tseed to 1e-013
Changing Tseed to 1e-008
Changing Tseed to 1e-014
Changing Tseed to 1e-007
Changing Tseed to 1e-015
Changing Tseed to 1e-006
Changing Tseed to 1e-016
Changing Tseed to 1e-005
Changing Tseed to 1e-017
+Changing Tseed to 1e-010
Changing Tseed to 1e-012
Changing Tseed to 1e-009
Changing Tseed to 1e-013
Changing Tseed to 1e-008
Changing Tseed to 1e-014
Changing Tseed to 1e-007
Changing Tseed to 1e-015
Changing Tseed to 1e-006
Changing Tseed to 1e-016
Changing Tseed to 1e-005
Changing Tseed to 1e-017
+Changing Tseed to 1e-010
Changing Tseed to 1e-012
Changing Tseed to 1e-009
Changing Tseed to 1e-013
Changing Tseed to 1e-008
Changing Tseed to 1e-014
Changing Tseed to 1e-007
Changing Tseed to 1e-015
Changing Tseed to 1e-006
Changing Tseed to 1e-016
Changing Tseed to 1e-005
Changing Tseed to 1e-017
+Changing Tseed to 1e-010
Changing Tseed to 1e-012
Changing Tseed to 1e-009
Changing Tseed to 1e-013
Changing Tseed to 1e-008
Changing Tseed to 1e-014
Changing Tseed to 1e-007
Changing Tseed to 1e-015
Changing Tseed to 1e-006
Changing Tseed to 1e-016
Changing Tseed to 1e-005
Changing Tseed to 1e-017
+Changing Tseed to 1e-010
Changing Tseed to 1e-012
Changing Tseed to 1e-009
Changing Tseed to 1e-013
Changing Tseed to 1e-008
Changing Tseed to 1e-014
Changing Tseed to 1e-007
Changing Tseed to 1e-015
Changing Tseed to 1e-006
Changing Tseed to 1e-016
Changing Tseed to 1e-005
Changing Tseed to 1e-017
+Changing Tseed to 1e-010
Changing Tseed to 1e-012
Changing Tseed to 1e-009
Changing Tseed to 1e-013
Changing Tseed to 1e-008
Changing Tseed to 1e-014
Changing Tseed to 1e-007
Changing Tseed to 1e-015
Changing Tseed to 1e-006
Changing Tseed to 1e-016
Changing Tseed to 1e-005
Changing Tseed to 1e-017
+Changing Tseed to 1e-010
Changing Tseed to 1e-012
Changing Tseed to 1e-009
Changing Tseed to 1e-013
Changing Tseed to 1e-008
Changing Tseed to 1e-014
Changing Tseed to 1e-007
Changing Tseed to 1e-015
Changing Tseed to 1e-006
Changing Tseed to 1e-016
Changing Tseed to 1e-005
Changing Tseed to 1e-017
+Changing Tseed to 1e-010
Changing Tseed to 1e-012
Changing Tseed to 1e-009
Changing Tseed to 1e-013
Changing Tseed to 1e-008
Changing Tseed to 1e-014
Changing Tseed to 1e-007
Changing Tseed to 1e-015
Changing Tseed to 1e-006
Changing Tseed to 1e-016
Changing Tseed to 1e-005
Changing Tseed to 1e-017
+Changing Tseed to 1e-010
Changing Tseed to 1e-012
Changing Tseed to 1e-009
Changing Tseed to 1e-013
Changing Tseed to 1e-008
Changing Tseed to 1e-014
Changing Tseed to 1e-007
Changing Tseed to 1e-015
Changing Tseed to 1e-006
Changing Tseed to 1e-016
Changing Tseed to 1e-005
Changing Tseed to 1e-017
+Changing Tseed to 1e-010
Changing Tseed to 1e-012
Changing Tseed to 1e-009
Changing Tseed to 1e-013
Changing Tseed to 1e-008
Changing Tseed to 1e-014
Changing Tseed to 1e-007
Changing Tseed to 1e-015
Changing Tseed to 1e-006
Changing Tseed to 1e-016
Changing Tseed to 1e-005
Changing Tseed to 1e-017
+Changing Tseed to 1e-010
Changing Tseed to 1e-012
Changing Tseed to 1e-009
Changing Tseed to 1e-013
Changing Tseed to 1e-008
Changing Tseed to 1e-014
Changing Tseed to 1e-007
Changing Tseed to 1e-015
Changing Tseed to 1e-006
Changing Tseed to 1e-016
Changing Tseed to 1e-005
Changing Tseed to 1e-017
+Changing Tseed to 1e-010
Changing Tseed to 1e-012
Changing Tseed to 1e-009
Changing Tseed to 1e-013
Changing Tseed to 1e-008
Changing Tseed to 1e-014
Changing Tseed to 1e-007
Changing Tseed to 1e-015
Changing Tseed to 1e-006
Changing Tseed to 1e-016
Changing Tseed to 1e-005
Changing Tseed to 1e-017
+Changing Tseed to 1e-010
Changing Tseed to 1e-012
Changing Tseed to 1e-009
Changing Tseed to 1e-013
Changing Tseed to 1e-008
Changing Tseed to 1e-014
Changing Tseed to 1e-007
Changing Tseed to 1e-015
Changing Tseed to 1e-006
Changing Tseed to 1e-016
Changing Tseed to 1e-005
Changing Tseed to 1e-017
+Changing Tseed to 1e-010
Changing Tseed to 1e-012
Changing Tseed to 1e-009
Changing Tseed to 1e-013
Changing Tseed to 1e-008
Changing Tseed to 1e-014
Changing Tseed to 1e-007
Changing Tseed to 1e-015
Changing Tseed to 1e-006
Changing Tseed to 1e-016
Changing Tseed to 1e-005
Changing Tseed to 1e-017
+Changing Tseed to 1e-010
Changing Tseed to 1e-012
Changing Tseed to 1e-009
Changing Tseed to 1e-013
Changing Tseed to 1e-008
Changing Tseed to 1e-014
Changing Tseed to 1e-007
Changing Tseed to 1e-015
Changing Tseed to 1e-006
Changing Tseed to 1e-016
Changing Tseed to 1e-005
Changing Tseed to 1e-017
+Changing Tseed to 1e-010
Changing Tseed to 1e-012
Changing Tseed to 1e-009
Changing Tseed to 1e-013
Changing Tseed to 1e-008
Changing Tseed to 1e-014
Changing Tseed to 1e-007
Changing Tseed to 1e-015
Changing Tseed to 1e-006
Changing Tseed to 1e-016
Changing Tseed to 1e-005
Changing Tseed to 1e-017
+Changing Tseed to 1e-010
Changing Tseed to 1e-012
Changing Tseed to 1e-009
Changing Tseed to 1e-013
Changing Tseed to 1e-008
Changing Tseed to 1e-014
Changing Tseed to 1e-007
Changing Tseed to 1e-015
Changing Tseed to 1e-006
Changing Tseed to 1e-016
Changing Tseed to 1e-005
Changing Tseed to 1e-017
+Changing Tseed to 1e-010
Changing Tseed to 1e-012
Changing Tseed to 1e-009
Changing Tseed to 1e-013
Changing Tseed to 1e-008
Changing Tseed to 1e-014
Changing Tseed to 1e-007
Changing Tseed to 1e-015
Changing Tseed to 1e-006
Changing Tseed to 1e-016
Changing Tseed to 1e-005
Changing Tseed to 1e-017
+Changing Tseed to 1e-010
Changing Tseed to 1e-012
Changing Tseed to 1e-009
Changing Tseed to 1e-013
Changing Tseed to 1e-008
Changing Tseed to 1e-014
to 1.01562e-014
Heightened Def Con from 1.01562e-014 ++++++++++++++++++++to 1.01708e-013
Heightened Def Con from 1.01708e-013 ++++++++++++++++++++to 1.36037e-013
Heightened Def Con from 1.36037e-013 ++++++++++++++++++++to 1.47479e-013
Heightened Def Con from 1.47479e-013 ++++++++++++++++++++to 1.55584e-013
Heightened Def Con from 1.55584e-013 ++++++++++++++++++++to 1.55644e-013
Heightened Def Con from 1.55644e-013 ++++++++++++++++++++to 1.55651e-013
Heightened Def Con from 1.55651e-013 ++++++++++++++++++++to 1.55659e-013
Heightened Def Con from 1.55659e-013 ++++++++++++++++++++to 1.55718e-013
Heightened Def Con from 1.55718e-013 ++++++++++++++++++++to 1.55726e-013
Heightened Def Con from 1.55726e-013 ++++++++++++++++++++to 1.55733e-013
Heightened Def Con from 1.55733e-013 ++++++++++++++++++++to 1.55741e-013
Heightened Def Con from 1.55741e-013 ++++++++++++++++++++to 1.56218e-013
Heightened Def Con from 1.56218e-013 +++++++++++++++++++++++++to 1.1e-009
Heightened Def Con from 1.14291e-009 to 4.14291e-009
Heightened Def Con from 5.00105e-006 to 5.00505e-006
Heightened Def Con from 1.05513e-005 to 1.05543e-005
Heightened Def Con from 1.50021e-005 to 1.50051e-005
Heightened Def Con from 2e-005 to 2.00011e-005
Heightened Def Con from 2.50021e-005 to 2.50051e-005
Heightened Def Con from 3.05525e-005 to 3.05555e-005
Heightened Def Con from 3.50021e-005 to 3.50051e-005
Heightened Def Con from 4.05526e-005 to 4.05556e-005
Heightened Def Con from 4.50021e-005 to 4.50051e-005
Heightened Def Con from 5.00009e-005 to 5.00049e-005
Heightened Def Con from 5.50011e-005 to 5.50051e-005
Heightened Def Con from 6.0553e-005 to 6.0556e-005
Heightened Def Con from 6.50021e-005 to 6.50051e-005
Heightened Def Con from 7.05528e-005 to 7.05558e-005
Heightened Def Con from 7.50021e-005 to 7.50051e-005
Heightened Def Con from 8.05534e-005 to 8.05564e-005
Heightened Def Con from 8.50021e-005 to 8.50051e-005
Heightened Def Con from 9.05527e-005 to 9.05557e-005
Heightened Def Con from 9.50021e-005 to 9.50051e-005
Heightened Def Con from 0.000100551 to 0.000100554
Heightened Def Con from 0.000105002 to 0.000105005
Heightened Def Con from 0.000110435 to 0.000110439
Heightened Def Con from 0.000115002 to 0.000115005
Heightened Def Con from 0.000120432 to 0.000120436
Heightened Def Con from 0.000125001 to 0.000125005
Heightened Def Con from 0.000130001 to 0.000130005
Heightened Def Con from 0.000135002 to 0.000135006
Heightened Def Con from 0.000140433 to 0.000140437
Heightened Def Con from 0.000145002 to 0.000145005
Heightened Def Con from 0.000150433 to 0.000150437
Heightened Def Con from 0.000155002 to 0.000155005
Heightened Def Con from 0.000160001 to 0.000160004
Heightened Def Con from 0.000165002 to 0.000165005
Heightened Def Con from 0.000171981 to 0.000171985
Heightened Def Con from 0.000175002 to 0.000175005
Heightened Def Con from 0.000181145 to 0.000181148
Heightened Def Con from 0.000185002 to 0.000185005
Heightened Def Con from 0.000190001 to 0.000190004
Heightened Def Con from 0.000195001 to 0.000195005
Heightened Def Con from 0.000200001 to 0.000200005
Heightened Def Con from 0.000205002 to 0.000205005
Heightened Def Con from 0.000210001 to 0.000210005
Heightened Def Con from 0.000215001 to 0.000215005
Heightened Def Con from 0.000220433 to 0.000220437
Heightened Def Con from 0.000225001 to 0.000225005
Heightened Def Con from 0.000230435 to 0.000230439
Heightened Def Con from 0.000235002 to 0.000235006
Heightened Def Con from 0.000240409 to 0.000240413
Heightened Def Con from 0.000245002 to 0.000245006
Heightened Def Con from 0.000250583 to 0.000250586
Heightened Def Con from 0.000255002 to 0.000255005
Heightened Def Con from 0.000260431 to 0.000260435
Heightened Def Con from 0.000265001 to 0.000265005
Heightened Def Con from 0.000271897 to 0.0002719
Heightened Def Con from 0.000275002 to 0.000275005
Heightened Def Con from 0.000280438 to 0.000280442
Heightened Def Con from 0.000285002 to 0.000285005
Heightened Def Con from 0.00029 to 0.000290004
Heightened Def Con from 0.000295001 to 0.000295005
Heightened Def Con from 0.000301119 to 0.000301123
Heightened Def Con from 0.000305002 to 0.000305005
Heightened Def Con from 0.000310581 to 0.000310585
Heightened Def Con from 0.000315449 to 0.000315453
Heightened Def Con from 0.000320001 to 0.000320004
Heightened Def Con from 0.000325001 to 0.000325005
Heightened Def Con from 0.000335001 to 0.000335005
Heightened Def Con from 0.000341138 to 0.000341142
Heightened Def Con from 0.000345002 to 0.000345006
Heightened Def Con from 0.00035113 to 0.000351134
Heightened Def Con from 0.000355002 to 0.000355006
Heightened Def Con from 0.000360001 to 0.000360004
Heightened Def Con from 0.000365001 to 0.000365005
Heightened Def Con from 0.000370439 to 0.000370442
Heightened Def Con from 0.000375002 to 0.000375006
Heightened Def Con from 0.000380426 to 0.00038043
Heightened Def Con from 0.000385002 to 0.000385006
Heightened Def Con from 0.000390425 to 0.000390429
Heightened Def Con from 0.000395002 to 0.000395006
Heightened Def Con from 0.000400397 to 0.000400401
Heightened Def Con from 0.000405002 to 0.000405006
Heightened Def Con from 0.000415002 to 0.000415006
Heightened Def Con from 0.000420001 to 0.000420005
Heightened Def Con from 0.000425002 to 0.000425006
Heightened Def Con from 0.000435001 to 0.000435005
Heightened Def Con from 0.000440001 to 0.000440005
Heightened Def Con from 0.000445002 to 0.000445006
Heightened Def Con from 0.000455001 to 0.000455005
Heightened Def Con from 0.000465002 to 0.000465005
Heightened Def Con from 0.000471053 to 0.000471057
Heightened Def Con from 0.000475002 to 0.000475006
Heightened Def Con from 0.000480001 to 0.000480004
Heightened Def Con from 0.000485002 to 0.000485006
Heightened Def Con from 0.000496227 to 0.00049623
Heightened Def Con from 0.000505002 to 0.000505006
Heightened Def Con from 0.000515419 to 0.000515423
Heightened Def Con from 0.000525002 to 0.000525005
Heightened Def Con from 0.000535001 to 0.000535005
Heightened Def Con from 0.000545002 to 0.000545006
Heightened Def Con from 0.000555001 to 0.000555005
Heightened Def Con from 0.000560001 to 0.000560005
Heightened Def Con from 0.000565001 to 0.000565005
Heightened Def Con from 0.000570001 to 0.000570004
Heightened Def Con from 0.000575002 to 0.000575006
Heightened Def Con from 0.000580781 to 0.000580783
Heightened Def Con from 0.000585001 to 0.000585005
Heightened Def Con from 0.000590795 to 0.000590797
Heightened Def Con from 0.000595002 to 0.000595006
Heightened Def Con from 0.0006 to 0.000600004
Heightened Def Con from 0.000605001 to 0.000605005
Heightened Def Con from 0.000610527 to 0.000610531
Heightened Def Con from 0.000615002 to 0.000615006
Heightened Def Con from 0.000620784 to 0.000620786
Heightened Def Con from 0.000625002 to 0.000625006
Heightened Def Con from 0.000630785 to 0.000630787
Heightened Def Con from 0.000635002 to 0.000635006
Heightened Def Con from 0.000640766 to 0.000640768
Heightened Def Con from 0.000645001 to 0.000645005
Heightened Def Con from 0.000650001 to 0.000650004
Heightened Def Con from 0.000655001 to 0.000655005
Heightened Def Con from 0.000660523 to 0.000660526
Heightened Def Con from 0.000665002 to 0.000665006
Heightened Def Con from 0.000670526 to 0.00067053
Heightened Def Con from 0.000675002 to 0.000675006
Heightened Def Con from 0.000680526 to 0.00068053
Heightened Def Con from 0.000685001 to 0.000685005
Heightened Def Con from 0.000690001 to 0.000690004
Heightened Def Con from 0.000695002 to 0.000695006
Heightened Def Con from 0.000700001 to 0.000700004
Heightened Def Con from 0.000705001 to 0.000705005
Heightened Def Con from 0.000710001 to 0.000710004
Heightened Def Con from 0.000715001 to 0.000715005
Heightened Def Con from 0.000720001 to 0.000720004
Heightened Def Con from 0.000725002 to 0.000725006
Heightened Def Con from 0.000730001 to 0.000730004
Heightened Def Con from 0.000735002 to 0.000735006
Heightened Def Con from 0.000741154 to 0.000741158
Heightened Def Con from 0.000745002 to 0.000745006
Heightened Def Con from 0.000750001 to 0.000750004
Heightened Def Con from 0.000755002 to 0.000755006
Heightened Def Con from 0.000760804 to 0.000760806
Heightened Def Con from 0.000765001 to 0.000765005
Heightened Def Con from 0.000770001 to 0.000770004
Heightened Def Con from 0.000774985 to 0.000774987
Heightened Def Con from 0.000775002 to 0.000775005
Heightened Def Con from 0.000780001 to 0.000780004
Heightened Def Con from 0.000785002 to 0.000785006
Heightened Def Con from 0.000790846 to 0.000790848
Heightened Def Con from 0.000795001 to 0.000795005
Heightened Def Con from 0.000800001 to 0.000800004
Heightened Def Con from 0.000805001 to 0.000805002
Heightened Def Con from 0.000815001 to 0.000815005
Heightened Def Con from 0.000825001 to 0.000825005
Heightened Def Con from 0.000830802 to 0.000830804
Heightened Def Con from 0.00083627 to 0.000836274
Heightened Def Con from 0.000845001 to 0.000845005
Heightened Def Con from 0.000855001 to 0.000855005
Heightened Def Con from 0.00086 to 0.000860004
Heightened Def Con from 0.000866189 to 0.000866193
Heightened Def Con from 0.000875001 to 0.000875006
Heightened Def Con from 0.000880001 to 0.000880005
Heightened Def Con from 0.000885002 to 0.000885005
Heightened Def Con from 0.000895001 to 0.000895005
Heightened Def Con from 0.000905001 to 0.000905006
Heightened Def Con from 0.000915001 to 0.000915006
Heightened Def Con from 0.00092 to 0.000920005
Heightened Def Con from 0.000925002 to 0.000925005
Heightened Def Con from 0.000930525 to 0.000930529
Heightened Def Con from 0.000935002 to 0.000935005
Heightened Def Con from 0.000945 to 0.000945005
Heightened Def Con from 0.000955001 to 0.000955005
Heightened Def Con from 0.000960001 to 0.000960005
Heightened Def Con from 0.000965001 to 0.000965003
Heightened Def Con from 0.000970001 to 0.000970004
Heightened Def Con from 0.000975001 to 0.000975005
Heightened Def Con from 0.000980001 to 0.000980004
Heightened Def Con from 0.000985002 to 0.000985006
Heightened Def Con from 0.00099115 to 0.000991154
Heightened Def Con from 0.000995002 to 0.000995006
Heightened Def Con from 0.00100048 to 0.00100048
Heightened Def Con from 0.001005 to 0.00100501
Heightened Def Con from 0.00101041 to 0.00101041
Heightened Def Con from 0.001015 to 0.00101501
Heightened Def Con from 0.00102 to 0.00102
Heightened Def Con from 0.001025 to 0.00102501
Heightened Def Con from 0.00103052 to 0.00103052
Heightened Def Con from 0.001035 to 0.00103501
Heightened Def Con from 0.00104044 to 0.00104044
Heightened Def Con from 0.001045 to 0.00104501
Heightened Def Con from 0.00105043 to 0.00105043
Heightened Def Con from 0.001055 to 0.00105501
Heightened Def Con from 0.00106 to 0.00106
Heightened Def Con from 0.001065 to 0.00106501
Heightened Def Con from 0.00107052 to 0.00107053
Heightened Def Con from 0.001075 to 0.00107501
Heightened Def Con from 0.00108 to 0.00108
Heightened Def Con from 0.001085 to 0.00108501
Heightened Def Con from 0.00109112 to 0.00109113
Heightened Def Con from 0.001095 to 0.00109501
Heightened Def Con from 0.00110061 to 0.00110061
Heightened Def Con from 0.001105 to 0.00110501
Heightened Def Con from 0.00111061 to 0.00111061
Heightened Def Con from 0.001115 to 0.00111501
Heightened Def Con from 0.00112 to 0.00112
Heightened Def Con from 0.001125 to 0.00112501
Heightened Def Con from 0.00113113 to 0.00113113
Heightened Def Con from 0.001135 to 0.00113501
Heightened Def Con from 0.00114113 to 0.00114113
Heightened Def Con from 0.001145 to 0.00114501
Heightened Def Con from 0.00115064 to 0.00115064
Heightened Def Con from 0.001155 to 0.00115501
Heightened Def Con from 0.00116061 to 0.00116061
Heightened Def Con from 0.001165 to 0.00116501
Heightened Def Con from 0.00117106 to 0.00117107
Heightened Def Con from 0.001175 to 0.00117501
Heightened Def Con from 0.0011806 to 0.0011806
Heightened Def Con from 0.001185 to 0.00118501
Heightened Def Con from 0.0011906 to 0.0011906
Heightened Def Con from 0.001195 to 0.00119501
Heightened Def Con from 0.00120187 to 0.00120187
Heightened Def Con from 0.001205 to 0.00120501
Heightened Def Con from 0.0012106 to 0.0012106
Heightened Def Con from 0.001215 to 0.00121501
Heightened Def Con from 0.0012206 to 0.0012206
Heightened Def Con from 0.001225 to 0.00122501
Heightened Def Con from 0.00123086 to 0.00123087
Heightened Def Con from 0.001235 to 0.00123501
Heightened Def Con from 0.00124 to 0.00124
Heightened Def Con from 0.001245 to 0.00124501
Heightened Def Con from 0.001255 to 0.00125501
Heightened Def Con from 0.00126186 to 0.00126187
Heightened Def Con from 0.001265 to 0.00126501
Heightened Def Con from 0.00127105 to 0.00127106
Heightened Def Con from 0.001275 to 0.00127501
Heightened Def Con from 0.00128082 to 0.00128082
Heightened Def Con from 0.001285 to 0.00128501
Heightened Def Con from 0.00129 to 0.00129
Heightened Def Con from 0.001295 to 0.00129501
Heightened Def Con from 0.00130044 to 0.00130044
Heightened Def Con from 0.001305 to 0.00130501
Heightened Def Con from 0.00131044 to 0.00131044
Heightened Def Con from 0.001315 to 0.00131501
Heightened Def Con from 0.00132044 to 0.00132044
Heightened Def Con from 0.001325 to 0.00132501
Heightened Def Con from 0.00133044 to 0.00133044
Heightened Def Con from 0.001335 to 0.00133501
Heightened Def Con from 0.00134044 to 0.00134044
Heightened Def Con from 0.001345 to 0.00134501
Heightened Def Con from 0.00135044 to 0.00135044
Heightened Def Con from 0.001355 to 0.00135501
Heightened Def Con from 0.00136044 to 0.00136044
Heightened Def Con from 0.001365 to 0.00136501
Heightened Def Con from 0.00137044 to 0.00137044
Heightened Def Con from 0.001375 to 0.00137501
Heightened Def Con from 0.00138 to 0.00138
Heightened Def Con from 0.001385 to 0.00138501
Heightened Def Con from 0.00139 to 0.00139
Heightened Def Con from 0.001395 to 0.00139501
Heightened Def Con from 0.0014 to 0.0014
Heightened Def Con from 0.001405 to 0.00140501
Heightened Def Con from 0.00141 to 0.00141
Heightened Def Con from 0.001415 to 0.00141501
Heightened Def Con from 0.00142084 to 0.00142084
Heightened Def Con from 0.001425 to 0.00142501
Heightened Def Con from 0.00143 to 0.00143
Heightened Def Con from 0.001435 to 0.00143501
Heightened Def Con from 0.00144 to 0.00144
Heightened Def Con from 0.001445 to 0.00144501
Heightened Def Con from 0.00145 to 0.00145
Heightened Def Con from 0.001455 to 0.00145501
Heightened Def Con from 0.00146 to 0.00146
Heightened Def Con from 0.001465 to 0.00146501
Heightened Def Con from 0.001475 to 0.00147501
Heightened Def Con from 0.00148043 to 0.00148043
Heightened Def Con from 0.001485 to 0.00148501
Heightened Def Con from 0.00149044 to 0.00149045
Heightened Def Con from 0.001495 to 0.00149501
Heightened Def Con from 0.00150042 to 0.00150042
Heightened Def Con from 0.001505 to 0.00150501
Heightened Def Con from 0.00151194 to 0.00151194
Heightened Def Con from 0.001515 to 0.00151501
Heightened Def Con from 0.00152042 to 0.00152042
Heightened Def Con from 0.001525 to 0.00152501
Heightened Def Con from 0.00153 to 0.00153
Heightened Def Con from 0.001535 to 0.00153501
Heightened Def Con from 0.00154051 to 0.00154051
Heightened Def Con from 0.001545 to 0.00154501
Heightened Def Con from 0.00155082 to 0.00155082
Heightened Def Con from 0.001555 to 0.00155501
Heightened Def Con from 0.00156053 to 0.00156053
Heightened Def Con from 0.001565 to 0.00156501
Heightened Def Con from 0.00157 to 0.00157
Heightened Def Con from 0.001575 to 0.00157501
Heightened Def Con from 0.00158 to 0.00158
Heightened Def Con from 0.001585 to 0.00158501
Heightened Def Con from 0.00159103 to 0.00159104
Heightened Def Con from 0.001595 to 0.00159501
Heightened Def Con from 0.00160103 to 0.00160103
Heightened Def Con from 0.001605 to 0.00160501
Heightened Def Con from 0.00161103 to 0.00161104
Heightened Def Con from 0.001615 to 0.00161501
Heightened Def Con from 0.00162108 to 0.00162109
Heightened Def Con from 0.001625 to 0.00162501
Heightened Def Con from 0.00163056 to 0.00163056
Heightened Def Con from 0.001635 to 0.00163501
Heightened Def Con from 0.00164057 to 0.00164057
Heightened Def Con from 0.001645 to 0.00164501
Heightened Def Con from 0.00165058 to 0.00165058
Heightened Def Con from 0.001655 to 0.00165501
Heightened Def Con from 0.00166057 to 0.00166058
Heightened Def Con from 0.001665 to 0.00166501
Heightened Def Con from 0.00167057 to 0.00167058
Heightened Def Con from 0.001675 to 0.00167501
Heightened Def Con from 0.00168 to 0.00168
Heightened Def Con from 0.001685 to 0.00168501
Heightened Def Con from 0.00169057 to 0.00169057
Heightened Def Con from 0.001695 to 0.00169501
Heightened Def Con from 0.00170058 to 0.00170058
Heightened Def Con from 0.001705 to 0.00170501
Heightened Def Con from 0.00171058 to 0.00171058
Heightened Def Con from 0.001715 to 0.00171501
Heightened Def Con from 0.00172058 to 0.00172058
Heightened Def Con from 0.001725 to 0.00172501
Heightened Def Con from 0.00173058 to 0.00173058
Heightened Def Con from 0.001735 to 0.00173501
Heightened Def Con from 0.00174049 to 0.00174049
Heightened Def Con from 0.001745 to 0.00174501
Heightened Def Con from 0.00175058 to 0.00175058
Heightened Def Con from 0.001755 to 0.00175501
Heightened Def Con from 0.00176058 to 0.00176058
Heightened Def Con from 0.001765 to 0.00176501
Heightened Def Con from 0.00177058 to 0.00177058
Heightened Def Con from 0.001775 to 0.00177501
Heightened Def Con from 0.00178058 to 0.00178058
Heightened Def Con from 0.001785 to 0.00178501
Heightened Def Con from 0.00179058 to 0.00179058
Heightened Def Con from 0.001795 to 0.00179501
Heightened Def Con from 0.00180058 to 0.00180058
Heightened Def Con from 0.001805 to 0.00180501
Heightened Def Con from 0.00181058 to 0.00181058
Heightened Def Con from 0.001815 to 0.00181501
Heightened Def Con from 0.00182058 to 0.00182058
Heightened Def Con from 0.001825 to 0.00182501
Heightened Def Con from 0.00183057 to 0.00183058
Heightened Def Con from 0.001835 to 0.00183501
Heightened Def Con from 0.00184057 to 0.00184057
Heightened Def Con from 0.001845 to 0.00184501
Heightened Def Con from 0.00185057 to 0.00185057
Heightened Def Con from 0.001855 to 0.00185501
Heightened Def Con from 0.00186057 to 0.00186057
Heightened Def Con from 0.001865 to 0.00186501
Heightened Def Con from 0.00187057 to 0.00187057
Heightened Def Con from 0.001875 to 0.00187501
Heightened Def Con from 0.00188056 to 0.00188057
Heightened Def Con from 0.001885 to 0.00188501
Heightened Def Con from 0.00189058 to 0.00189058
Heightened Def Con from 0.001895 to 0.00189501
Heightened Def Con from 0.00190054 to 0.00190055
Heightened Def Con from 0.001905 to 0.00190501
Heightened Def Con from 0.00191054 to 0.00191054
Heightened Def Con from 0.001915 to 0.00191501
Heightened Def Con from 0.00192039 to 0.00192039
Heightened Def Con from 0.001925 to 0.00192501
Heightened Def Con from 0.00193073 to 0.00193073
Heightened Def Con from 0.001935 to 0.00193501
Heightened Def Con from 0.00194 to 0.00194
Heightened Def Con from 0.001945 to 0.00194501
Heightened Def Con from 0.00195 to 0.00195
Heightened Def Con from 0.001955 to 0.00195501
Heightened Def Con from 0.00196 to 0.00196
Heightened Def Con from 0.001965 to 0.00196501
Heightened Def Con from 0.00197 to 0.00197
Heightened Def Con from 0.001975 to 0.00197501
Heightened Def Con from 0.00198 to 0.00198
Heightened Def Con from 0.001985 to 0.00198501
Heightened Def Con from 0.00199 to 0.00199
Heightened Def Con from 0.001995 to 0.00199501
Heightened Def Con from 0.002 to 0.002
Heightened Def Con from 0.002005 to 0.00200501
Heightened Def Con from 0.00201108 to 0.00201109
Heightened Def Con from 0.002015 to 0.00201501
Heightened Def Con from 0.0020204 to 0.0020204
Heightened Def Con from 0.002025 to 0.00202501
Heightened Def Con from 0.00203054 to 0.00203055
Heightened Def Con from 0.002035 to 0.00203501
Heightened Def Con from 0.00204054 to 0.00204054
Heightened Def Con from 0.002045 to 0.00204501
Heightened Def Con from 0.00205 to 0.00205
Heightened Def Con from 0.002055 to 0.00205501
Heightened Def Con from 0.00206053 to 0.00206053
Heightened Def Con from 0.002065 to 0.00206501
Heightened Def Con from 0.00207 to 0.00207
Heightened Def Con from 0.002075 to 0.00207501
Heightened Def Con from 0.00208082 to 0.00208082
Heightened Def Con from 0.002085 to 0.00208501
Heightened Def Con from 0.00209102 to 0.00209103
Heightened Def Con from 0.002095 to 0.00209501
Heightened Def Con from 0.002105 to 0.00210501
Heightened Def Con from 0.00211 to 0.00211
Heightened Def Con from 0.002115 to 0.00211501
Heightened Def Con from 0.00212 to 0.00212
Heightened Def Con from 0.002125 to 0.00212501
Heightened Def Con from 0.00213057 to 0.00213057
Heightened Def Con from 0.002135 to 0.00213501
Heightened Def Con from 0.00214105 to 0.00214105
Heightened Def Con from 0.002145 to 0.00214501
Heightened Def Con from 0.00215054 to 0.00215054
Heightened Def Con from 0.002155 to 0.00215501
Heightened Def Con from 0.00216054 to 0.00216054
Heightened Def Con from 0.002165 to 0.00216501
Heightened Def Con from 0.00217 to 0.00217
Heightened Def Con from 0.002175 to 0.00217501
Heightened Def Con from 0.00218 to 0.00218
Heightened Def Con from 0.002185 to 0.00218501
Heightened Def Con from 0.00219054 to 0.00219054
Heightened Def Con from 0.002195 to 0.00219501
Heightened Def Con from 0.00220057 to 0.00220058
Heightened Def Con from 0.002205 to 0.00220501
Heightened Def Con from 0.00221054 to 0.00221054
Heightened Def Con from 0.002215 to 0.00221501
Heightened Def Con from 0.00222052 to 0.00222052
Heightened Def Con from 0.002225 to 0.00222501
Heightened Def Con from 0.00223054 to 0.00223054
Heightened Def Con from 0.002235 to 0.002235
Heightened Def Con from 0.00224 to 0.00224
Heightened Def Con from 0.002245 to 0.00224501
Heightened Def Con from 0.00225054 to 0.00225054
Heightened Def Con from 0.002255 to 0.00225501
Heightened Def Con from 0.00226 to 0.00226
Heightened Def Con from 0.002265 to 0.00226501
Heightened Def Con from 0.00227054 to 0.00227054
Heightened Def Con from 0.002275 to 0.00227501
Heightened Def Con from 0.00228054 to 0.00228054
Heightened Def Con from 0.002285 to 0.00228501
Heightened Def Con from 0.00229054 to 0.00229054
Heightened Def Con from 0.002295 to 0.00229501
Heightened Def Con from 0.00230054 to 0.00230054
Heightened Def Con from 0.002305 to 0.00230501
Heightened Def Con from 0.00231054 to 0.00231054
Heightened Def Con from 0.002315 to 0.00231501
Heightened Def Con from 0.00232049 to 0.00232049
Heightened Def Con from 0.002325 to 0.00232501
Heightened Def Con from 0.00233 to 0.00233
Heightened Def Con from 0.002335 to 0.00233501
Heightened Def Con from 0.00234054 to 0.00234054
Heightened Def Con from 0.002345 to 0.00234501
Heightened Def Con from 0.00235054 to 0.00235054
Heightened Def Con from 0.002355 to 0.00235501
Heightened Def Con from 0.00236054 to 0.00236054
Heightened Def Con from 0.002365 to 0.00236501
Heightened Def Con from 0.00237054 to 0.00237054
Heightened Def Con from 0.002375 to 0.00237501
Heightened Def Con from 0.00238054 to 0.00238054
Heightened Def Con from 0.002385 to 0.00238501
Heightened Def Con from 0.00239054 to 0.00239054
Heightened Def Con from 0.002395 to 0.00239501
Heightened Def Con from 0.002405 to 0.00240501
Heightened Def Con from 0.00241 to 0.00241
Heightened Def Con from 0.002415 to 0.00241501
Heightened Def Con from 0.0024204 to 0.0024204
Heightened Def Con from 0.002425 to 0.00242501
Heightened Def Con from 0.00243 to 0.00243
Heightened Def Con from 0.002435 to 0.00243501
Heightened Def Con from 0.00244054 to 0.00244054
Heightened Def Con from 0.002445 to 0.00244501
Heightened Def Con from 0.00245054 to 0.00245054
Heightened Def Con from 0.002455 to 0.00245501
Heightened Def Con from 0.00246054 to 0.00246054
Heightened Def Con from 0.002465 to 0.00246501
Heightened Def Con from 0.00247054 to 0.00247054
Heightened Def Con from 0.002475 to 0.00247501
Heightened Def Con from 0.00248043 to 0.00248043
Heightened Def Con from 0.002485 to 0.00248501
Heightened Def Con from 0.00249054 to 0.00249054
Heightened Def Con from 0.002495 to 0.00249501
Heightened Def Con from 0.0025 to 0.0025
Heightened Def Con from 0.002505 to 0.00250501
Heightened Def Con from 0.00251054 to 0.00251054
Heightened Def Con from 0.002515 to 0.00251501
Heightened Def Con from 0.00252054 to 0.00252054
Heightened Def Con from 0.002525 to 0.00252501
Heightened Def Con from 0.00253054 to 0.00253054
Heightened Def Con from 0.002535 to 0.00253501
Heightened Def Con from 0.00254102 to 0.00254102
Heightened Def Con from 0.002545 to 0.00254501
Heightened Def Con from 0.00255054 to 0.00255054
Heightened Def Con from 0.002555 to 0.00255501
Heightened Def Con from 0.00256 to 0.00256
Heightened Def Con from 0.002565 to 0.00256501
Heightened Def Con from 0.00257 to 0.00257
Heightened Def Con from 0.002575 to 0.00257501
Heightened Def Con from 0.00258052 to 0.00258052
Heightened Def Con from 0.002585 to 0.00258501
Heightened Def Con from 0.00259053 to 0.00259054
Heightened Def Con from 0.002595 to 0.00259501
Heightened Def Con from 0.00260051 to 0.00260052
Heightened Def Con from 0.002605 to 0.00260501
Heightened Def Con from 0.00261052 to 0.00261052
Heightened Def Con from 0.002615 to 0.00261501
Heightened Def Con from 0.00262 to 0.00262
Heightened Def Con from 0.002625 to 0.00262501
Heightened Def Con from 0.00263 to 0.00263
Heightened Def Con from 0.002635 to 0.00263501
Heightened Def Con from 0.00264 to 0.00264
Heightened Def Con from 0.002645 to 0.00264501
Heightened Def Con from 0.00265 to 0.00265
Heightened Def Con from 0.002655 to 0.00265501
Heightened Def Con from 0.00266102 to 0.00266102
Heightened Def Con from 0.002665 to 0.00266501
Heightened Def Con from 0.00267 to 0.00267
Heightened Def Con from 0.002675 to 0.00267501
Heightened Def Con from 0.00268051 to 0.00268051
Heightened Def Con from 0.002685 to 0.00268501
Heightened Def Con from 0.00269053 to 0.00269054
Heightened Def Con from 0.002695 to 0.00269501
Heightened Def Con from 0.00270054 to 0.00270054
Heightened Def Con from 0.002705 to 0.00270501
Heightened Def Con from 0.00271053 to 0.00271054
Heightened Def Con from 0.002715 to 0.00271501
Heightened Def Con from 0.00272053 to 0.00272054
Heightened Def Con from 0.002725 to 0.00272501
Heightened Def Con from 0.00273053 to 0.00273054
Heightened Def Con from 0.002735 to 0.00273501
Heightened Def Con from 0.00274053 to 0.00274054
Heightened Def Con from 0.002745 to 0.00274501
Heightened Def Con from 0.00275053 to 0.00275054
Heightened Def Con from 0.002755 to 0.00275501
Heightened Def Con from 0.00276053 to 0.00276054
Heightened Def Con from 0.002765 to 0.00276501
Heightened Def Con from 0.00277053 to 0.00277054
Heightened Def Con from 0.002775 to 0.00277501
Heightened Def Con from 0.00278 to 0.00278
Heightened Def Con from 0.002785 to 0.00278501
Heightened Def Con from 0.00279053 to 0.00279054
Heightened Def Con from 0.002795 to 0.00279501
Heightened Def Con from 0.00280053 to 0.00280054
Heightened Def Con from 0.002805 to 0.00280501
Heightened Def Con from 0.00281053 to 0.00281054
Heightened Def Con from 0.002815 to 0.00281501
Heightened Def Con from 0.00282052 to 0.00282052
Heightened Def Con from 0.002825 to 0.00282501
Heightened Def Con from 0.00283041 to 0.00283042
Heightened Def Con from 0.002835 to 0.00283501
Heightened Def Con from 0.00284059 to 0.00284059
Heightened Def Con from 0.002845 to 0.00284501
Heightened Def Con from 0.00285 to 0.00285
Heightened Def Con from 0.002855 to 0.00285501
Heightened Def Con from 0.00286 to 0.00286
Heightened Def Con from 0.002865 to 0.00286501
Heightened Def Con from 0.00287057 to 0.00287057
Heightened Def Con from 0.002875 to 0.00287501
Heightened Def Con from 0.00288054 to 0.00288054
Heightened Def Con from 0.002885 to 0.00288501
Heightened Def Con from 0.00289 to 0.00289
Heightened Def Con from 0.002895 to 0.00289501
Heightened Def Con from 0.00290054 to 0.00290054
Heightened Def Con from 0.002905 to 0.00290501
Heightened Def Con from 0.00291054 to 0.00291054
Heightened Def Con from 0.002915 to 0.00291501
Heightened Def Con from 0.00292054 to 0.00292054
Heightened Def Con from 0.002925 to 0.00292501
Heightened Def Con from 0.00293054 to 0.00293054
Heightened Def Con from 0.002935 to 0.00293501
Heightened Def Con from 0.00294052 to 0.00294052
Heightened Def Con from 0.002945 to 0.00294501
Heightened Def Con from 0.00295043 to 0.00295043
Heightened Def Con from 0.002955 to 0.00295501
Heightened Def Con from 0.00296 to 0.00296
Heightened Def Con from 0.002965 to 0.00296501
Heightened Def Con from 0.00297054 to 0.00297054
Heightened Def Con from 0.002975 to 0.00297501
Heightened Def Con from 0.00298054 to 0.00298054
Heightened Def Con from 0.002985 to 0.00298501
Heightened Def Con from 0.00299053 to 0.00299054
Heightened Def Con from 0.002995 to 0.00299501
Heightened Def Con from 0.00300054 to 0.00300054
Heightened Def Con from 0.003005 to 0.00300501
Heightened Def Con from 0.00301054 to 0.00301054
Heightened Def Con from 0.003015 to 0.00301501
Heightened Def Con from 0.00302049 to 0.00302049
Heightened Def Con from 0.003025 to 0.00302501
Heightened Def Con from 0.00303 to 0.00303
Heightened Def Con from 0.003035 to 0.00303501
Heightened Def Con from 0.00304 to 0.00304
Heightened Def Con from 0.003045 to 0.00304501
Heightened Def Con from 0.00305054 to 0.00305054
Heightened Def Con from 0.003055 to 0.00305501
Heightened Def Con from 0.00306054 to 0.00306054
Heightened Def Con from 0.003065 to 0.00306501
Heightened Def Con from 0.00307054 to 0.00307054
Heightened Def Con from 0.003075 to 0.00307501
Heightened Def Con from 0.00308054 to 0.00308054
Heightened Def Con from 0.003085 to 0.00308501
Heightened Def Con from 0.00309052 to 0.00309052
Heightened Def Con from 0.003095 to 0.00309501
Heightened Def Con from 0.00310041 to 0.00310041
Heightened Def Con from 0.003105 to 0.00310501
Heightened Def Con from 0.00311 to 0.00311
Heightened Def Con from 0.003115 to 0.00311501
Heightened Def Con from 0.00312102 to 0.00312102
Heightened Def Con from 0.003125 to 0.00312501
Heightened Def Con from 0.00313054 to 0.00313054
Heightened Def Con from 0.003135 to 0.00313501
Heightened Def Con from 0.00314052 to 0.00314052
Heightened Def Con from 0.003145 to 0.00314501
Heightened Def Con from 0.00315112 to 0.00315113
Heightened Def Con from 0.003155 to 0.00315501
Heightened Def Con from 0.00316074 to 0.00316074
Heightened Def Con from 0.003165 to 0.00316501
Heightened Def Con from 0.00317 to 0.00317
Heightened Def Con from 0.003175 to 0.00317501
Heightened Def Con from 0.00318204 to 0.00318204
Heightened Def Con from 0.003185 to 0.00318501
Heightened Def Con from 0.00319053 to 0.00319054
Heightened Def Con from 0.003195 to 0.00319501
Heightened Def Con from 0.00320053 to 0.00320054
Heightened Def Con from 0.003205 to 0.00320501
Heightened Def Con from 0.00321053 to 0.00321054
Heightened Def Con from 0.003215 to 0.00321501
Heightened Def Con from 0.00322052 to 0.00322052
Heightened Def Con from 0.003225 to 0.00322501
Heightened Def Con from 0.0032305 to 0.0032305
Heightened Def Con from 0.003235 to 0.00323501
Heightened Def Con from 0.00324053 to 0.00324054
Heightened Def Con from 0.003245 to 0.00324501
Heightened Def Con from 0.00325051 to 0.00325051
Heightened Def Con from 0.003255 to 0.00325501
Heightened Def Con from 0.00326041 to 0.00326042
Heightened Def Con from 0.003265 to 0.00326501
Heightened Def Con from 0.00327054 to 0.00327054
Heightened Def Con from 0.003275 to 0.00327501
Heightened Def Con from 0.00328 to 0.00328
Heightened Def Con from 0.003285 to 0.00328501
Heightened Def Con from 0.00329054 to 0.00329054
Heightened Def Con from 0.003295 to 0.00329501
Heightened Def Con from 0.00330054 to 0.00330054
Heightened Def Con from 0.003305 to 0.00330501
Heightened Def Con from 0.00331 to 0.00331
Heightened Def Con from 0.003315 to 0.00331501
Heightened Def Con from 0.00332049 to 0.0033205
Heightened Def Con from 0.003325 to 0.00332501
Heightened Def Con from 0.00333 to 0.00333
Heightened Def Con from 0.003335 to 0.00333501
Heightened Def Con from 0.00334054 to 0.00334054
Heightened Def Con from 0.003345 to 0.00334501
Heightened Def Con from 0.00335054 to 0.00335054
Heightened Def Con from 0.003355 to 0.00335501
Heightened Def Con from 0.00336054 to 0.00336054
Heightened Def Con from 0.003365 to 0.00336501
Heightened Def Con from 0.00337102 to 0.00337103
Heightened Def Con from 0.003375 to 0.00337501
Heightened Def Con from 0.00338054 to 0.00338054
Heightened Def Con from 0.003385 to 0.00338501
Heightened Def Con from 0.00339054 to 0.00339054
Heightened Def Con from 0.003395 to 0.00339501
Heightened Def Con from 0.00340101 to 0.00340102
Heightened Def Con from 0.003405 to 0.00340501
Heightened Def Con from 0.00341054 to 0.00341054
Heightened Def Con from 0.003415 to 0.00341501
Heightened Def Con from 0.00342054 to 0.00342054
Heightened Def Con from 0.003425 to 0.00342501
Heightened Def Con from 0.00343054 to 0.00343054
Heightened Def Con from 0.003435 to 0.00343501
Heightened Def Con from 0.00344054 to 0.00344054
Heightened Def Con from 0.003445 to 0.00344501
Heightened Def Con from 0.00345054 to 0.00345054
Heightened Def Con from 0.003455 to 0.00345501
Heightened Def Con from 0.00346053 to 0.00346054
Heightened Def Con from 0.003465 to 0.00346501
Heightened Def Con from 0.0034705 to 0.0034705
Heightened Def Con from 0.003475 to 0.00347501
Heightened Def Con from 0.00348202 to 0.00348202
Heightened Def Con from 0.003485 to 0.00348501
Heightened Def Con from 0.00349053 to 0.00349054
Heightened Def Con from 0.003495 to 0.00349501
Heightened Def Con from 0.00350053 to 0.00350054
Heightened Def Con from 0.003505 to 0.00350501
Heightened Def Con from 0.00351053 to 0.00351054
Heightened Def Con from 0.003515 to 0.00351501
Heightened Def Con from 0.00352053 to 0.00352054
Heightened Def Con from 0.003525 to 0.00352501
Heightened Def Con from 0.00353052 to 0.00353052
Heightened Def Con from 0.003535 to 0.00353501
Heightened Def Con from 0.00354057 to 0.00354058
Heightened Def Con from 0.003545 to 0.00354501
Heightened Def Con from 0.00355051 to 0.00355052
Heightened Def Con from 0.003555 to 0.00355501
Heightened Def Con from 0.00356 to 0.00356
Heightened Def Con from 0.003565 to 0.00356501
Heightened Def Con from 0.00357053 to 0.00357054
Heightened Def Con from 0.003575 to 0.00357501
Heightened Def Con from 0.00358 to 0.00358
Heightened Def Con from 0.003585 to 0.00358501
Heightened Def Con from 0.00359053 to 0.00359054
Heightened Def Con from 0.003595 to 0.00359501
Heightened Def Con from 0.00360053 to 0.00360054
Heightened Def Con from 0.003605 to 0.00360501
Heightened Def Con from 0.00361102 to 0.00361102
Heightened Def Con from 0.003615 to 0.00361501
Heightened Def Con from 0.00362053 to 0.00362054
Heightened Def Con from 0.003625 to 0.00362501
Heightened Def Con from 0.00363052 to 0.00363052
Heightened Def Con from 0.003635 to 0.00363501
Heightened Def Con from 0.003645 to 0.00364501
Heightened Def Con from 0.00365053 to 0.00365054
Heightened Def Con from 0.003655 to 0.00365501
Heightened Def Con from 0.00366102 to 0.00366102
Heightened Def Con from 0.003665 to 0.00366501
Heightened Def Con from 0.00367053 to 0.00367054
Heightened Def Con from 0.003675 to 0.00367501
Heightened Def Con from 0.00368053 to 0.00368054
Heightened Def Con from 0.003685 to 0.00368501
Heightened Def Con from 0.00369053 to 0.00369054
Heightened Def Con from 0.003695 to 0.00369501
Heightened Def Con from 0.00370053 to 0.00370054
Heightened Def Con from 0.003705 to 0.00370501
Heightened Def Con from 0.00371053 to 0.00371054
Heightened Def Con from 0.003715 to 0.00371501
Heightened Def Con from 0.00372053 to 0.00372054
Heightened Def Con from 0.003725 to 0.00372501
Heightened Def Con from 0.00373053 to 0.00373054
Heightened Def Con from 0.003735 to 0.00373501
Heightened Def Con from 0.00374053 to 0.00374054
Heightened Def Con from 0.003745 to 0.00374501
Heightened Def Con from 0.00375053 to 0.00375054
Heightened Def Con from 0.003755 to 0.00375501
Heightened Def Con from 0.00376053 to 0.00376054
Heightened Def Con from 0.003765 to 0.00376501
Heightened Def Con from 0.00377053 to 0.00377054
Heightened Def Con from 0.003775 to 0.00377501
Heightened Def Con from 0.00378053 to 0.00378054
Heightened Def Con from 0.003785 to 0.00378501
Heightened Def Con from 0.00379053 to 0.00379054
Heightened Def Con from 0.003795 to 0.00379501
Heightened Def Con from 0.00380053 to 0.00380054
Heightened Def Con from 0.003805 to 0.00380501
Heightened Def Con from 0.00381053 to 0.00381054
Heightened Def Con from 0.003815 to 0.00381501
Heightened Def Con from 0.00382053 to 0.00382054
Heightened Def Con from 0.003825 to 0.00382501
Heightened Def Con from 0.00383053 to 0.00383054
Heightened Def Con from 0.003835 to 0.00383501
Heightened Def Con from 0.00384052 to 0.00384052
Heightened Def Con from 0.003845 to 0.00384501
Heightened Def Con from 0.00385051 to 0.00385052
Heightened Def Con from 0.003855 to 0.00385501
Heightened Def Con from 0.00386 to 0.00386
Heightened Def Con from 0.003865 to 0.00386501
Heightened Def Con from 0.00387 to 0.00387
Heightened Def Con from 0.003875 to 0.00387501
Heightened Def Con from 0.00388053 to 0.00388053
Heightened Def Con from 0.003885 to 0.00388501
Heightened Def Con from 0.00389053 to 0.00389054
Heightened Def Con from 0.003895 to 0.00389501
Heightened Def Con from 0.00390052 to 0.00390052
Heightened Def Con from 0.003905 to 0.00390501
Heightened Def Con from 0.00391053 to 0.00391054
Heightened Def Con from 0.003915 to 0.00391501
Heightened Def Con from 0.00392 to 0.00392
Heightened Def Con from 0.003925 to 0.00392501
Heightened Def Con from 0.00393053 to 0.00393054
Heightened Def Con from 0.003935 to 0.00393501
Heightened Def Con from 0.00394053 to 0.00394054
Heightened Def Con from 0.003945 to 0.00394501
Heightened Def Con from 0.00395053 to 0.00395054
Heightened Def Con from 0.003955 to 0.00395501
Heightened Def Con from 0.00396053 to 0.00396054
Heightened Def Con from 0.003965 to 0.00396501
Heightened Def Con from 0.00397053 to 0.00397054
Heightened Def Con from 0.003975 to 0.00397501
Heightened Def Con from 0.00398 to 0.00398
Heightened Def Con from 0.003985 to 0.00398501
Heightened Def Con from 0.00399051 to 0.00399052
Heightened Def Con from 0.003995 to 0.00399501
Heightened Def Con from 0.00400053 to 0.00400054
Heightened Def Con from 0.004005 to 0.00400501
Heightened Def Con from 0.00401053 to 0.00401054
Heightened Def Con from 0.004015 to 0.00401501
Heightened Def Con from 0.00402053 to 0.00402054
Heightened Def Con from 0.004025 to 0.00402501
Heightened Def Con from 0.00403053 to 0.00403054
Heightened Def Con from 0.004035 to 0.00403501
Heightened Def Con from 0.00404 to 0.00404
Heightened Def Con from 0.004045 to 0.00404501
Heightened Def Con from 0.00405053 to 0.00405054
Heightened Def Con from 0.004055 to 0.00405501
Heightened Def Con from 0.00406053 to 0.00406054
Heightened Def Con from 0.004065 to 0.00406501
Heightened Def Con from 0.00407053 to 0.00407054
Heightened Def Con from 0.004075 to 0.00407501
Heightened Def Con from 0.00408102 to 0.00408102
Heightened Def Con from 0.004085 to 0.00408501
Heightened Def Con from 0.00409 to 0.00409
Heightened Def Con from 0.004095 to 0.00409501
Heightened Def Con from 0.00410059 to 0.00410059
Heightened Def Con from 0.004105 to 0.00410501
Heightened Def Con from 0.00411 to 0.00411
Heightened Def Con from 0.004115 to 0.00411501
Heightened Def Con from 0.00412 to 0.00412
Heightened Def Con from 0.004125 to 0.00412501
Heightened Def Con from 0.00413053 to 0.00413053
Heightened Def Con from 0.004135 to 0.00413501
Heightened Def Con from 0.00414053 to 0.00414054
Heightened Def Con from 0.004145 to 0.00414501
Heightened Def Con from 0.00415 to 0.00415
Heightened Def Con from 0.004155 to 0.00415501
Heightened Def Con from 0.00416053 to 0.00416054
Heightened Def Con from 0.004165 to 0.00416501
Heightened Def Con from 0.00417053 to 0.00417053
Heightened Def Con from 0.004175 to 0.00417501
Heightened Def Con from 0.00418052 to 0.00418052
Heightened Def Con from 0.004185 to 0.00418501
Heightened Def Con from 0.00419053 to 0.00419054
Heightened Def Con from 0.004195 to 0.00419501
Heightened Def Con from 0.00420053 to 0.00420054
Heightened Def Con from 0.004205 to 0.00420501
Heightened Def Con from 0.00421053 to 0.00421054
Heightened Def Con from 0.004215 to 0.00421501
Heightened Def Con from 0.00422053 to 0.00422054
Heightened Def Con from 0.004225 to 0.00422501
Heightened Def Con from 0.00423053 to 0.00423054
Heightened Def Con from 0.004235 to 0.00423501
Heightened Def Con from 0.00424053 to 0.00424054
Heightened Def Con from 0.004245 to 0.00424501
Heightened Def Con from 0.00425053 to 0.00425054
Heightened Def Con from 0.004255 to 0.00425501
Heightened Def Con from 0.00426105 to 0.00426105
Heightened Def Con from 0.004265 to 0.00426501
Heightened Def Con from 0.00427051 to 0.00427051
Heightened Def Con from 0.004275 to 0.00427501
Heightened Def Con from 0.00428053 to 0.00428054
Heightened Def Con from 0.004285 to 0.004285
Heightened Def Con from 0.00429 to 0.00429
Heightened Def Con from 0.004295 to 0.00429501
Heightened Def Con from 0.00430053 to 0.00430053
Heightened Def Con from 0.004305 to 0.00430501
Heightened Def Con from 0.00431054 to 0.00431054
Heightened Def Con from 0.004315 to 0.00431501
Heightened Def Con from 0.004325 to 0.00432501
Heightened Def Con from 0.00433 to 0.00433
Heightened Def Con from 0.004335 to 0.00433501
Heightened Def Con from 0.00434111 to 0.00434111
Heightened Def Con from 0.004345 to 0.00434501
Heightened Def Con from 0.00435053 to 0.00435054
Heightened Def Con from 0.004355 to 0.00435501
Heightened Def Con from 0.00436 to 0.00436
Heightened Def Con from 0.004365 to 0.00436501
Heightened Def Con from 0.00437 to 0.00437
Heightened Def Con from 0.004375 to 0.00437501
Heightened Def Con from 0.00438102 to 0.00438102
Heightened Def Con from 0.004385 to 0.00438501
Heightened Def Con from 0.00439053 to 0.00439054
Heightened Def Con from 0.004395 to 0.00439501
Heightened Def Con from 0.00440053 to 0.00440054
Heightened Def Con from 0.004405 to 0.00440501
Heightened Def Con from 0.00441053 to 0.00441054
Heightened Def Con from 0.004415 to 0.00441501
Heightened Def Con from 0.00442053 to 0.00442054
Heightened Def Con from 0.004425 to 0.00442501
Heightened Def Con from 0.00443053 to 0.00443054
Heightened Def Con from 0.004435 to 0.004435
Heightened Def Con from 0.00444 to 0.00444
Heightened Def Con from 0.004445 to 0.00444501
Heightened Def Con from 0.00445053 to 0.00445054
Heightened Def Con from 0.004455 to 0.00445501
Heightened Def Con from 0.00446053 to 0.00446054
Heightened Def Con from 0.004465 to 0.00446501
Heightened Def Con from 0.00447053 to 0.00447054
Heightened Def Con from 0.004475 to 0.00447501
Heightened Def Con from 0.00448053 to 0.00448054
Heightened Def Con from 0.004485 to 0.00448501
Heightened Def Con from 0.00449053 to 0.00449054
Heightened Def Con from 0.004495 to 0.00449501
Heightened Def Con from 0.00450053 to 0.00450054
Heightened Def Con from 0.004505 to 0.00450501
Heightened Def Con from 0.00451053 to 0.00451054
Heightened Def Con from 0.004515 to 0.00451501
Heightened Def Con from 0.00452053 to 0.00452054
Heightened Def Con from 0.004525 to 0.00452501
Heightened Def Con from 0.00453053 to 0.00453054
Heightened Def Con from 0.004535 to 0.00453501
Heightened Def Con from 0.00454053 to 0.00454054
Heightened Def Con from 0.004545 to 0.00454501
Heightened Def Con from 0.00455053 to 0.00455054
Heightened Def Con from 0.004555 to 0.00455501
Heightened Def Con from 0.00456053 to 0.00456054
Heightened Def Con from 0.004565 to 0.00456501
Heightened Def Con from 0.00457053 to 0.00457054
Heightened Def Con from 0.004575 to 0.00457501
Heightened Def Con from 0.00458053 to 0.00458054
Heightened Def Con from 0.004585 to 0.00458501
Heightened Def Con from 0.00459053 to 0.00459054
Heightened Def Con from 0.004595 to 0.00459501
Heightened Def Con from 0.0046 to 0.0046
Heightened Def Con from 0.004605 to 0.00460501
Heightened Def Con from 0.00461 to 0.00461
Heightened Def Con from 0.004615 to 0.00461501
Heightened Def Con from 0.00462 to 0.00462
Heightened Def Con from 0.004625 to 0.00462501
Heightened Def Con from 0.00463043 to 0.00463043
Heightened Def Con from 0.004635 to 0.00463501
Heightened Def Con from 0.00464052 to 0.00464052
Heightened Def Con from 0.004645 to 0.00464501
Heightened Def Con from 0.00465192 to 0.00465193
Heightened Def Con from 0.004655 to 0.00465501
Heightened Def Con from 0.00466051 to 0.00466052
Heightened Def Con from 0.004665 to 0.00466501
Heightened Def Con from 0.00467 to 0.00467
Heightened Def Con from 0.004675 to 0.00467501
Heightened Def Con from 0.00468113 to 0.00468114
Heightened Def Con from 0.004685 to 0.00468501
Heightened Def Con from 0.00469053 to 0.00469053
Heightened Def Con from 0.004695 to 0.00469501
Heightened Def Con from 0.0047 to 0.0047
Heightened Def Con from 0.004705 to 0.00470501
Heightened Def Con from 0.00471052 to 0.00471052
Heightened Def Con from 0.004715 to 0.00471501
Heightened Def Con from 0.00472 to 0.00472
Heightened Def Con from 0.004725 to 0.00472501
Heightened Def Con from 0.00473 to 0.00473
Heightened Def Con from 0.004735 to 0.00473501
Heightened Def Con from 0.00474 to 0.00474
Heightened Def Con from 0.004745 to 0.00474501
Heightened Def Con from 0.00475105 to 0.00475106
Heightened Def Con from 0.004755 to 0.00475501
Heightened Def Con from 0.00476194 to 0.00476194
Heightened Def Con from 0.004765 to 0.00476501
Heightened Def Con from 0.00477 to 0.00477
Heightened Def Con from 0.004775 to 0.00477501
Heightened Def Con from 0.00478 to 0.00478
Heightened Def Con from 0.004785 to 0.00478501
Heightened Def Con from 0.00479 to 0.00479
Heightened Def Con from 0.004795 to 0.00479501
Heightened Def Con from 0.0048 to 0.0048
Heightened Def Con from 0.004805 to 0.00480501
Heightened Def Con from 0.00481 to 0.00481
Heightened Def Con from 0.004815 to 0.00481501
Heightened Def Con from 0.00482 to 0.00482
Heightened Def Con from 0.004825 to 0.00482501
Heightened Def Con from 0.00483049 to 0.00483049
Heightened Def Con from 0.004835 to 0.00483501
Heightened Def Con from 0.00484054 to 0.00484054
Heightened Def Con from 0.004845 to 0.00484501
Heightened Def Con from 0.00485 to 0.00485
Heightened Def Con from 0.004855 to 0.00485501
Heightened Def Con from 0.00486 to 0.00486
Heightened Def Con from 0.004865 to 0.00486501
Heightened Def Con from 0.00487 to 0.00487
Heightened Def Con from 0.004875 to 0.00487501
Heightened Def Con from 0.00488207 to 0.00488207
Heightened Def Con from 0.004885 to 0.00488501
Heightened Def Con from 0.00489 to 0.00489
Heightened Def Con from 0.004895 to 0.00489501
Heightened Def Con from 0.00490051 to 0.00490051
Heightened Def Con from 0.004905 to 0.00490501
Heightened Def Con from 0.00491 to 0.00491
Heightened Def Con from 0.004915 to 0.00491501
Heightened Def Con from 0.00492105 to 0.00492105
Heightened Def Con from 0.004925 to 0.00492501
Heightened Def Con from 0.00493 to 0.00493
Heightened Def Con from 0.004935 to 0.00493501
Heightened Def Con from 0.00494 to 0.00494
Heightened Def Con from 0.004945 to 0.00494501
Heightened Def Con from 0.00495048 to 0.00495048
Heightened Def Con from 0.004955 to 0.00495501
Heightened Def Con from 0.0049605 to 0.00496051
Heightened Def Con from 0.004965 to 0.00496501
Heightened Def Con from 0.00497052 to 0.00497052
Heightened Def Con from 0.004975 to 0.00497501
Heightened Def Con from 0.00498 to 0.00498
Heightened Def Con from 0.004985 to 0.00498501
Heightened Def Con from 0.00499102 to 0.00499102
Heightened Def Con from 0.004995 to 0.00499501
Heightened Def Con from 0.00500051 to 0.00500052
Heightened Def Con from 0.005005 to 0.00500501
Heightened Def Con from 0.00501102 to 0.00501102
Heightened Def Con from 0.005015 to 0.00501501
Heightened Def Con from 0.00502 to 0.00502
Heightened Def Con from 0.005025 to 0.00502501
Heightened Def Con from 0.00503053 to 0.00503054
Heightened Def Con from 0.005035 to 0.00503501
Heightened Def Con from 0.00504052 to 0.00504052
Heightened Def Con from 0.005045 to 0.00504501
Heightened Def Con from 0.00505059 to 0.00505059
Heightened Def Con from 0.005055 to 0.00505501
Heightened Def Con from 0.00506 to 0.00506
Heightened Def Con from 0.005065 to 0.00506501
Heightened Def Con from 0.00507053 to 0.00507053
Heightened Def Con from 0.005075 to 0.00507501
Heightened Def Con from 0.00508041 to 0.00508042
Heightened Def Con from 0.005085 to 0.00508501
Heightened Def Con from 0.00509052 to 0.00509052
Heightened Def Con from 0.005095 to 0.00509501
Heightened Def Con from 0.00510101 to 0.00510102
Heightened Def Con from 0.005105 to 0.00510501
Heightened Def Con from 0.00511189 to 0.00511189
Heightened Def Con from 0.005115 to 0.00511501
Heightened Def Con from 0.00512 to 0.00512
Heightened Def Con from 0.005125 to 0.00512501
Heightened Def Con from 0.0051305 to 0.00513051
Heightened Def Con from 0.005135 to 0.00513501
Heightened Def Con from 0.00514 to 0.00514
Heightened Def Con from 0.005145 to 0.00514501
Heightened Def Con from 0.00515053 to 0.00515053
Heightened Def Con from 0.005155 to 0.00515501
Heightened Def Con from 0.00516 to 0.00516
Heightened Def Con from 0.005165 to 0.00516501
Heightened Def Con from 0.00517 to 0.00517
Heightened Def Con from 0.005175 to 0.00517501
Heightened Def Con from 0.00518053 to 0.00518054
Heightened Def Con from 0.005185 to 0.00518501
Heightened Def Con from 0.00519052 to 0.00519052
Heightened Def Con from 0.005195 to 0.00519501
Heightened Def Con from 0.00520057 to 0.00520057
Heightened Def Con from 0.005205 to 0.00520501
Heightened Def Con from 0.00521203 to 0.00521203
Heightened Def Con from 0.005215 to 0.00521501
Heightened Def Con from 0.00522053 to 0.00522053
Heightened Def Con from 0.005225 to 0.00522501
Heightened Def Con from 0.00523053 to 0.00523053
Heightened Def Con from 0.005235 to 0.00523501
Heightened Def Con from 0.00524053 to 0.00524053
Heightened Def Con from 0.005245 to 0.00524501
Heightened Def Con from 0.00525053 to 0.00525053
Heightened Def Con from 0.005255 to 0.00525501
Heightened Def Con from 0.00526053 to 0.00526053
Heightened Def Con from 0.005265 to 0.00526501
Heightened Def Con from 0.00527053 to 0.00527053
Heightened Def Con from 0.005275 to 0.00527501
Heightened Def Con from 0.00528053 to 0.00528053
Heightened Def Con from 0.005285 to 0.00528501
Heightened Def Con from 0.00529053 to 0.00529053
Heightened Def Con from 0.005295 to 0.00529501
Heightened Def Con from 0.00530053 to 0.00530053
Heightened Def Con from 0.005305 to 0.00530501
Heightened Def Con from 0.00531053 to 0.00531053
Heightened Def Con from 0.005315 to 0.00531501
Heightened Def Con from 0.00532053 to 0.00532053
Heightened Def Con from 0.005325 to 0.00532501
Heightened Def Con from 0.00533053 to 0.00533053
Heightened Def Con from 0.005335 to 0.00533501
Heightened Def Con from 0.00534053 to 0.00534053
Heightened Def Con from 0.005345 to 0.00534501
Heightened Def Con from 0.00535053 to 0.00535053
Heightened Def Con from 0.005355 to 0.00535501
Heightened Def Con from 0.00536053 to 0.00536053
Heightened Def Con from 0.005365 to 0.00536501
Heightened Def Con from 0.00537053 to 0.00537053
Heightened Def Con from 0.005375 to 0.00537501
Heightened Def Con from 0.00538053 to 0.00538053
Heightened Def Con from 0.005385 to 0.00538501
Heightened Def Con from 0.00539053 to 0.00539053
Heightened Def Con from 0.005395 to 0.00539501
Heightened Def Con from 0.00540053 to 0.00540053
Heightened Def Con from 0.005405 to 0.00540501
Heightened Def Con from 0.00541053 to 0.00541053
Heightened Def Con from 0.005415 to 0.00541501
Heightened Def Con from 0.00542053 to 0.00542053
Heightened Def Con from 0.005425 to 0.00542501
Heightened Def Con from 0.00543053 to 0.00543053
Heightened Def Con from 0.005435 to 0.00543501
Heightened Def Con from 0.00544053 to 0.00544053
Heightened Def Con from 0.005445 to 0.00544501
Heightened Def Con from 0.00545053 to 0.00545053
Heightened Def Con from 0.005455 to 0.00545501
Heightened Def Con from 0.00546053 to 0.00546053
Heightened Def Con from 0.005465 to 0.00546501
Heightened Def Con from 0.00547053 to 0.00547053
Heightened Def Con from 0.005475 to 0.00547501
Heightened Def Con from 0.00548053 to 0.00548053
Heightened Def Con from 0.005485 to 0.00548501
Heightened Def Con from 0.00549053 to 0.00549053
Heightened Def Con from 0.005495 to 0.00549501
Heightened Def Con from 0.00550053 to 0.00550053
Heightened Def Con from 0.005505 to 0.00550501
Heightened Def Con from 0.00551053 to 0.00551053
Heightened Def Con from 0.005515 to 0.00551501
Heightened Def Con from 0.00552053 to 0.00552053
Heightened Def Con from 0.005525 to 0.00552501
Heightened Def Con from 0.00553053 to 0.00553053
Heightened Def Con from 0.005535 to 0.00553501
Heightened Def Con from 0.00554053 to 0.00554053
Heightened Def Con from 0.005545 to 0.00554501
Heightened Def Con from 0.00555053 to 0.00555053
Heightened Def Con from 0.005555 to 0.00555501
Heightened Def Con from 0.00556053 to 0.00556053
Heightened Def Con from 0.005565 to 0.00556501
Heightened Def Con from 0.00557053 to 0.00557053
Heightened Def Con from 0.005575 to 0.00557501
Heightened Def Con from 0.00558053 to 0.00558053
Heightened Def Con from 0.005585 to 0.00558501
Heightened Def Con from 0.00559053 to 0.00559053
Heightened Def Con from 0.005595 to 0.00559501
Heightened Def Con from 0.00560053 to 0.00560053
Heightened Def Con from 0.005605 to 0.00560501
Heightened Def Con from 0.00561053 to 0.00561053
Heightened Def Con from 0.005615 to 0.00561501
Heightened Def Con from 0.00562053 to 0.00562053
Heightened Def Con from 0.005625 to 0.00562501
Heightened Def Con from 0.00563053 to 0.00563053
Heightened Def Con from 0.005635 to 0.00563501
Heightened Def Con from 0.00564053 to 0.00564053
Heightened Def Con from 0.005645 to 0.00564501
Heightened Def Con from 0.00565053 to 0.00565053
Heightened Def Con from 0.005655 to 0.00565501
Heightened Def Con from 0.00566053 to 0.00566053
Heightened Def Con from 0.005665 to 0.00566501
Heightened Def Con from 0.00567053 to 0.00567053
Heightened Def Con from 0.005675 to 0.00567501
Heightened Def Con from 0.00568053 to 0.00568053
Heightened Def Con from 0.005685 to 0.00568501
Heightened Def Con from 0.00569053 to 0.00569053
Heightened Def Con from 0.005695 to 0.00569501
Heightened Def Con from 0.00570053 to 0.00570053
Heightened Def Con from 0.005705 to 0.00570501
Heightened Def Con from 0.00571053 to 0.00571053
Heightened Def Con from 0.005715 to 0.00571501
Heightened Def Con from 0.00572053 to 0.00572053
Heightened Def Con from 0.005725 to 0.00572501
Heightened Def Con from 0.00573053 to 0.00573053
Heightened Def Con from 0.005735 to 0.00573501
Heightened Def Con from 0.00574053 to 0.00574053
Heightened Def Con from 0.005745 to 0.00574501
Heightened Def Con from 0.00575053 to 0.00575053
Heightened Def Con from 0.005755 to 0.00575501
Heightened Def Con from 0.00576053 to 0.00576053
Heightened Def Con from 0.005765 to 0.00576501
Heightened Def Con from 0.00577053 to 0.00577053
Heightened Def Con from 0.005775 to 0.005775
Heightened Def Con from 0.00578053 to 0.00578053
Heightened Def Con from 0.005785 to 0.00578501
Heightened Def Con from 0.00579053 to 0.00579053
Heightened Def Con from 0.005795 to 0.00579501
Heightened Def Con from 0.00580053 to 0.00580053
Heightened Def Con from 0.005805 to 0.00580501
Heightened Def Con from 0.00581053 to 0.00581053
Heightened Def Con from 0.005815 to 0.00581501
Heightened Def Con from 0.00582053 to 0.00582053
Heightened Def Con from 0.005825 to 0.00582501
Heightened Def Con from 0.00583053 to 0.00583053
Heightened Def Con from 0.005835 to 0.00583501
Heightened Def Con from 0.00584053 to 0.00584053
Heightened Def Con from 0.005845 to 0.00584501
Heightened Def Con from 0.00585053 to 0.00585053
Heightened Def Con from 0.005855 to 0.00585501
Heightened Def Con from 0.00586 to 0.00586
Heightened Def Con from 0.005865 to 0.00586501
Heightened Def Con from 0.00587101 to 0.00587101
Heightened Def Con from 0.005875 to 0.00587501
Heightened Def Con from 0.00588052 to 0.00588052
Heightened Def Con from 0.005885 to 0.00588501
Heightened Def Con from 0.00589 to 0.00589
Heightened Def Con from 0.005895 to 0.00589501
Heightened Def Con from 0.00590051 to 0.00590052
Heightened Def Con from 0.005905 to 0.00590501
Heightened Def Con from 0.00591204 to 0.00591204
Heightened Def Con from 0.005915 to 0.00591501
Heightened Def Con from 0.00592 to 0.00592
Heightened Def Con from 0.005925 to 0.00592501
Heightened Def Con from 0.0059305 to 0.00593051
Heightened Def Con from 0.005935 to 0.00593501
Heightened Def Con from 0.00594 to 0.00594
Heightened Def Con from 0.005945 to 0.00594501
Heightened Def Con from 0.00595102 to 0.00595102
Heightened Def Con from 0.005955 to 0.00595501
Heightened Def Con from 0.00596 to 0.00596
Heightened Def Con from 0.005965 to 0.00596501
Heightened Def Con from 0.00597 to 0.00597
Heightened Def Con from 0.005975 to 0.00597501
Heightened Def Con from 0.00598053 to 0.00598053
Heightened Def Con from 0.005985 to 0.00598501
Heightened Def Con from 0.00599 to 0.00599
Heightened Def Con from 0.005995 to 0.00599501
Heightened Def Con from 0.006 to 0.006
Heightened Def Con from 0.006005 to 0.00600501
Heightened Def Con from 0.00601052 to 0.00601052
Heightened Def Con from 0.006015 to 0.00601501
Heightened Def Con from 0.00602052 to 0.00602052
Heightened Def Con from 0.006025 to 0.00602501
Heightened Def Con from 0.00603109 to 0.0060311
Heightened Def Con from 0.006035 to 0.00603501
Heightened Def Con from 0.00604193 to 0.00604193
Heightened Def Con from 0.006045 to 0.00604501
Heightened Def Con from 0.00605051 to 0.00605052
Heightened Def Con from 0.006055 to 0.00605501
Heightened Def Con from 0.00606053 to 0.00606053
Heightened Def Con from 0.006065 to 0.00606501
Heightened Def Con from 0.00607053 to 0.00607053
Heightened Def Con from 0.006075 to 0.00607501
Heightened Def Con from 0.00608053 to 0.00608053
Heightened Def Con from 0.006085 to 0.00608501
Heightened Def Con from 0.00609053 to 0.00609053
Heightened Def Con from 0.006095 to 0.00609501
Heightened Def Con from 0.00610053 to 0.00610053
Heightened Def Con from 0.006105 to 0.00610501
Heightened Def Con from 0.00611053 to 0.00611053
Heightened Def Con from 0.006115 to 0.00611501
Heightened Def Con from 0.00612053 to 0.00612053
Heightened Def Con from 0.006125 to 0.00612501
Heightened Def Con from 0.00613053 to 0.00613053
Heightened Def Con from 0.006135 to 0.00613501
Heightened Def Con from 0.00614053 to 0.00614053
Heightened Def Con from 0.006145 to 0.00614501
Heightened Def Con from 0.00615053 to 0.00615053
Heightened Def Con from 0.006155 to 0.00615501
Heightened Def Con from 0.00616053 to 0.00616053
Heightened Def Con from 0.006165 to 0.00616501
Heightened Def Con from 0.00617053 to 0.00617053
Heightened Def Con from 0.006175 to 0.00617501
Heightened Def Con from 0.00618053 to 0.00618053
Heightened Def Con from 0.006185 to 0.00618501
Heightened Def Con from 0.00619053 to 0.00619053
Heightened Def Con from 0.006195 to 0.00619501
Heightened Def Con from 0.00620053 to 0.00620053
Heightened Def Con from 0.006205 to 0.00620501
Heightened Def Con from 0.00621053 to 0.00621053
Heightened Def Con from 0.006215 to 0.00621501
Heightened Def Con from 0.00622053 to 0.00622053
Heightened Def Con from 0.006225 to 0.00622501
Heightened Def Con from 0.00623053 to 0.00623053
Heightened Def Con from 0.006235 to 0.00623501
Heightened Def Con from 0.00624053 to 0.00624053
Heightened Def Con from 0.006245 to 0.00624501
Heightened Def Con from 0.00625053 to 0.00625053
Heightened Def Con from 0.006255 to 0.00625501
Heightened Def Con from 0.00626053 to 0.00626053
Heightened Def Con from 0.006265 to 0.00626501
Heightened Def Con from 0.00627053 to 0.00627053
Heightened Def Con from 0.006275 to 0.00627501
Heightened Def Con from 0.00628053 to 0.00628053
Heightened Def Con from 0.006285 to 0.00628501
Heightened Def Con from 0.00629053 to 0.00629053
Heightened Def Con from 0.006295 to 0.00629501
Heightened Def Con from 0.00630053 to 0.00630053
Heightened Def Con from 0.006305 to 0.00630501
Heightened Def Con from 0.00631053 to 0.00631053
Heightened Def Con from 0.006315 to 0.00631501
Heightened Def Con from 0.00632053 to 0.00632053
Heightened Def Con from 0.006325 to 0.00632501
Heightened Def Con from 0.00633053 to 0.00633053
Heightened Def Con from 0.006335 to 0.00633501
Heightened Def Con from 0.00634053 to 0.00634053
Heightened Def Con from 0.006345 to 0.00634501
Heightened Def Con from 0.00635053 to 0.00635053
Heightened Def Con from 0.006355 to 0.00635501
Heightened Def Con from 0.00636053 to 0.00636053
Heightened Def Con from 0.006365 to 0.00636501
Heightened Def Con from 0.00637053 to 0.00637053
Heightened Def Con from 0.006375 to 0.00637501
Heightened Def Con from 0.00638053 to 0.00638053
Heightened Def Con from 0.006385 to 0.00638501
Heightened Def Con from 0.00639053 to 0.00639053
Heightened Def Con from 0.006395 to 0.00639501
Heightened Def Con from 0.00640053 to 0.00640053
Heightened Def Con from 0.006405 to 0.00640501
Heightened Def Con from 0.00641053 to 0.00641053
Heightened Def Con from 0.006415 to 0.00641501
Heightened Def Con from 0.00642053 to 0.00642053
Heightened Def Con from 0.006425 to 0.00642501
Heightened Def Con from 0.00643053 to 0.00643053
Heightened Def Con from 0.006435 to 0.00643501
Heightened Def Con from 0.00644053 to 0.00644053
Heightened Def Con from 0.006445 to 0.00644501
Heightened Def Con from 0.00645053 to 0.00645053
Heightened Def Con from 0.006455 to 0.00645501
Heightened Def Con from 0.00646053 to 0.00646053
Heightened Def Con from 0.006465 to 0.00646501
Heightened Def Con from 0.00647053 to 0.00647053
Heightened Def Con from 0.006475 to 0.006475
Heightened Def Con from 0.00648 to 0.00648
Heightened Def Con from 0.006485 to 0.00648501
Heightened Def Con from 0.00649053 to 0.00649053
Heightened Def Con from 0.006495 to 0.00649501
Heightened Def Con from 0.00650053 to 0.00650053
Heightened Def Con from 0.006505 to 0.00650501
Heightened Def Con from 0.00651053 to 0.00651053
Heightened Def Con from 0.006515 to 0.00651501
Heightened Def Con from 0.00652053 to 0.00652053
Heightened Def Con from 0.006525 to 0.00652501
Heightened Def Con from 0.00653053 to 0.00653053
Heightened Def Con from 0.006535 to 0.00653501
Heightened Def Con from 0.00654053 to 0.00654053
Heightened Def Con from 0.006545 to 0.00654501
Heightened Def Con from 0.00655053 to 0.00655053
Heightened Def Con from 0.006555 to 0.00655501
Heightened Def Con from 0.00656053 to 0.00656053
Heightened Def Con from 0.006565 to 0.00656501
Heightened Def Con from 0.00657053 to 0.00657053
Heightened Def Con from 0.006575 to 0.00657501
Heightened Def Con from 0.00658052 to 0.00658052
Heightened Def Con from 0.006585 to 0.00658501
Heightened Def Con from 0.00659052 to 0.00659052
Heightened Def Con from 0.006595 to 0.00659501
Heightened Def Con from 0.00660053 to 0.00660053
Heightened Def Con from 0.006605 to 0.00660501
Heightened Def Con from 0.00661053 to 0.00661053
Heightened Def Con from 0.006615 to 0.00661501
Heightened Def Con from 0.00662053 to 0.00662053
Heightened Def Con from 0.006625 to 0.00662501
Heightened Def Con from 0.00663053 to 0.00663053
Heightened Def Con from 0.006635 to 0.00663501
Heightened Def Con from 0.00664053 to 0.00664053
Heightened Def Con from 0.006645 to 0.00664501
Heightened Def Con from 0.00665053 to 0.00665053
Heightened Def Con from 0.006655 to 0.00665501
Heightened Def Con from 0.00666051 to 0.00666052
Heightened Def Con from 0.006665 to 0.00666501
Heightened Def Con from 0.00667 to 0.00667
Heightened Def Con from 0.006675 to 0.00667501
Heightened Def Con from 0.00668 to 0.00668
Heightened Def Con from 0.006685 to 0.00668501
Heightened Def Con from 0.00669053 to 0.00669053
Heightened Def Con from 0.006695 to 0.00669501
Heightened Def Con from 0.00670052 to 0.00670052
Heightened Def Con from 0.006705 to 0.00670501
Heightened Def Con from 0.00671052 to 0.00671052
Heightened Def Con from 0.006715 to 0.00671501
Heightened Def Con from 0.00672053 to 0.00672053
Heightened Def Con from 0.006725 to 0.00672501
Heightened Def Con from 0.00673053 to 0.00673053
Heightened Def Con from 0.006735 to 0.00673501
Heightened Def Con from 0.00674053 to 0.00674053
Heightened Def Con from 0.006745 to 0.00674501
Heightened Def Con from 0.00675052 to 0.00675053
Heightened Def Con from 0.006755 to 0.00675501
Heightened Def Con from 0.00676053 to 0.00676053
Heightened Def Con from 0.006765 to 0.00676501
Heightened Def Con from 0.00677041 to 0.00677041
Heightened Def Con from 0.006775 to 0.00677501
Heightened Def Con from 0.00678 to 0.00678
Heightened Def Con from 0.006785 to 0.00678501
Heightened Def Con from 0.00679 to 0.00679
Heightened Def Con from 0.006795 to 0.00679501
Heightened Def Con from 0.0068 to 0.0068
Heightened Def Con from 0.006805 to 0.00680501
Heightened Def Con from 0.00681042 to 0.00681042
Heightened Def Con from 0.006815 to 0.00681501
Heightened Def Con from 0.00682113 to 0.00682113
Heightened Def Con from 0.006825 to 0.00682501
Heightened Def Con from 0.00683 to 0.00683
Heightened Def Con from 0.006835 to 0.00683501
Heightened Def Con from 0.00684 to 0.00684
Heightened Def Con from 0.006845 to 0.00684501
Heightened Def Con from 0.00685 to 0.00685
Heightened Def Con from 0.006855 to 0.00685501
Heightened Def Con from 0.00686 to 0.00686
Heightened Def Con from 0.006865 to 0.00686501
Heightened Def Con from 0.00687 to 0.00687
Heightened Def Con from 0.006875 to 0.00687501
Heightened Def Con from 0.00688 to 0.00688
Heightened Def Con from 0.006885 to 0.00688501
Heightened Def Con from 0.00689076 to 0.00689076
Heightened Def Con from 0.006895 to 0.00689501
Heightened Def Con from 0.0069019 to 0.00690191
Heightened Def Con from 0.006905 to 0.00690501
Heightened Def Con from 0.00691051 to 0.00691052
Heightened Def Con from 0.006915 to 0.00691501
Heightened Def Con from 0.00692 to 0.00692
Heightened Def Con from 0.006925 to 0.00692501
Heightened Def Con from 0.00693043 to 0.00693043
Heightened Def Con from 0.006935 to 0.00693501
Heightened Def Con from 0.006941 to 0.00694101
Heightened Def Con from 0.006945 to 0.00694501
Heightened Def Con from 0.006955 to 0.006955
Heightened Def Con from 0.00696 to 0.00696
Heightened Def Con from 0.006965 to 0.00696501
Heightened Def Con from 0.00697 to 0.00697
Heightened Def Con from 0.006975 to 0.00697501
Heightened Def Con from 0.00698202 to 0.00698202
Heightened Def Con from 0.006985 to 0.00698501
Heightened Def Con from 0.006991 to 0.00699101
Heightened Def Con from 0.006995 to 0.00699501
Heightened Def Con from 0.00700059 to 0.0070006
Heightened Def Con from 0.007005 to 0.00700501
Heightened Def Con from 0.00701 to 0.00701
Heightened Def Con from 0.007015 to 0.00701501
Heightened Def Con from 0.00702051 to 0.00702052
Heightened Def Con from 0.007025 to 0.00702501
Heightened Def Con from 0.00703 to 0.00703
Heightened Def Con from 0.007035 to 0.00703501
Heightened Def Con from 0.00704102 to 0.00704102
Heightened Def Con from 0.007045 to 0.00704501
Heightened Def Con from 0.00705 to 0.00705
Heightened Def Con from 0.007055 to 0.00705501
Heightened Def Con from 0.00706 to 0.00706
Heightened Def Con from 0.007065 to 0.00706501
Heightened Def Con from 0.00707 to 0.00707
Heightened Def Con from 0.007075 to 0.00707501
Heightened Def Con from 0.00708 to 0.00708
Heightened Def Con from 0.007085 to 0.00708501
Heightened Def Con from 0.00709 to 0.00709
Heightened Def Con from 0.007095 to 0.00709501
Heightened Def Con from 0.0071 to 0.0071
Heightened Def Con from 0.007105 to 0.00710501
Heightened Def Con from 0.00711101 to 0.00711102
Heightened Def Con from 0.007115 to 0.00711501
Heightened Def Con from 0.00712101 to 0.00712101
Heightened Def Con from 0.007125 to 0.00712501
Heightened Def Con from 0.00713044 to 0.00713045
Heightened Def Con from 0.007135 to 0.00713501
Heightened Def Con from 0.00714 to 0.00714
Heightened Def Con from 0.007145 to 0.00714501
Heightened Def Con from 0.00715046 to 0.00715047
Heightened Def Con from 0.007155 to 0.00715501
Heightened Def Con from 0.00716 to 0.00716
Heightened Def Con from 0.007165 to 0.00716501
Heightened Def Con from 0.00717102 to 0.00717102
Heightened Def Con from 0.007175 to 0.00717501
Heightened Def Con from 0.00718053 to 0.00718053
Heightened Def Con from 0.007185 to 0.00718501
Heightened Def Con from 0.00719058 to 0.00719058
Heightened Def Con from 0.007195 to 0.00719501
Heightened Def Con from 0.0072 to 0.0072
Heightened Def Con from 0.007205 to 0.00720501
Heightened Def Con from 0.00721 to 0.00721
Heightened Def Con from 0.007215 to 0.00721501
Heightened Def Con from 0.00722 to 0.00722
Heightened Def Con from 0.007225 to 0.00722501
Heightened Def Con from 0.00723051 to 0.00723052
Heightened Def Con from 0.007235 to 0.00723501
Heightened Def Con from 0.00724 to 0.00724
Heightened Def Con from 0.007245 to 0.00724501
Heightened Def Con from 0.00725 to 0.00725
Heightened Def Con from 0.007255 to 0.00725501
Heightened Def Con from 0.00726052 to 0.00726053
Heightened Def Con from 0.007265 to 0.00726501
Heightened Def Con from 0.00727 to 0.00727
Heightened Def Con from 0.007275 to 0.00727501
Heightened Def Con from 0.00728052 to 0.00728052
Heightened Def Con from 0.007285 to 0.00728501
Heightened Def Con from 0.00729059 to 0.00729059
Heightened Def Con from 0.007295 to 0.00729501
Heightened Def Con from 0.00730047 to 0.00730048
Heightened Def Con from 0.007305 to 0.00730501
Heightened Def Con from 0.00731 to 0.00731
Heightened Def Con from 0.007315 to 0.00731501
Heightened Def Con from 0.00732112 to 0.00732113
Heightened Def Con from 0.007325 to 0.00732501
Heightened Def Con from 0.00733 to 0.00733
Heightened Def Con from 0.007335 to 0.00733501
Heightened Def Con from 0.00734057 to 0.00734058
Heightened Def Con from 0.007345 to 0.00734501
Heightened Def Con from 0.00735049 to 0.00735049
Heightened Def Con from 0.007355 to 0.00735501
Heightened Def Con from 0.00736047 to 0.00736047
Heightened Def Con from 0.007365 to 0.00736501
Heightened Def Con from 0.00737 to 0.00737
Heightened Def Con from 0.007375 to 0.00737501
Heightened Def Con from 0.00738 to 0.00738
Heightened Def Con from 0.007385 to 0.00738501
Heightened Def Con from 0.00739052 to 0.00739052
Heightened Def Con from 0.007395 to 0.00739501
Heightened Def Con from 0.00740051 to 0.00740052
Heightened Def Con from 0.007405 to 0.00740501
Heightened Def Con from 0.00741 to 0.00741
Heightened Def Con from 0.007415 to 0.00741501
Heightened Def Con from 0.00742 to 0.00742
Heightened Def Con from 0.007425 to 0.00742501
Heightened Def Con from 0.00743204 to 0.00743205
Heightened Def Con from 0.007435 to 0.00743501
Heightened Def Con from 0.00744101 to 0.00744102
Heightened Def Con from 0.007445 to 0.00744501
Heightened Def Con from 0.00745103 to 0.00745103
Heightened Def Con from 0.007455 to 0.00745501
Heightened Def Con from 0.00746 to 0.00746
Heightened Def Con from 0.007465 to 0.00746501
Heightened Def Con from 0.00747 to 0.00747
Heightened Def Con from 0.007475 to 0.00747501
Heightened Def Con from 0.00748 to 0.00748
Heightened Def Con from 0.007485 to 0.00748501
Heightened Def Con from 0.00749 to 0.00749
Heightened Def Con from 0.007495 to 0.00749501
Heightened Def Con from 0.00750053 to 0.00750054
Heightened Def Con from 0.007505 to 0.00750501
Heightened Def Con from 0.00751052 to 0.00751052
Heightened Def Con from 0.007515 to 0.00751501
Heightened Def Con from 0.00752 to 0.00752
Heightened Def Con from 0.007525 to 0.00752501
Heightened Def Con from 0.00753052 to 0.00753052
Heightened Def Con from 0.007535 to 0.00753501
Heightened Def Con from 0.00754053 to 0.00754053
Heightened Def Con from 0.007545 to 0.00754501
Heightened Def Con from 0.00755052 to 0.00755052
Heightened Def Con from 0.007555 to 0.00755501
Heightened Def Con from 0.00756053 to 0.00756053
Heightened Def Con from 0.007565 to 0.00756501
Heightened Def Con from 0.00757 to 0.00757
Heightened Def Con from 0.007575 to 0.00757501
Heightened Def Con from 0.0075805 to 0.0075805
Heightened Def Con from 0.007585 to 0.00758501
Heightened Def Con from 0.00759047 to 0.00759047
Heightened Def Con from 0.007595 to 0.00759501
Heightened Def Con from 0.0076 to 0.0076
Heightened Def Con from 0.007605 to 0.00760501
Heightened Def Con from 0.00761 to 0.00761
Heightened Def Con from 0.007615 to 0.00761501
Heightened Def Con from 0.00762057 to 0.00762057
Heightened Def Con from 0.007625 to 0.00762501
Heightened Def Con from 0.00763053 to 0.00763054
Heightened Def Con from 0.007635 to 0.00763501
Heightened Def Con from 0.00764053 to 0.00764053
Heightened Def Con from 0.007645 to 0.00764501
Heightened Def Con from 0.00765052 to 0.00765052
Heightened Def Con from 0.007655 to 0.00765501
Heightened Def Con from 0.00766052 to 0.00766052
Heightened Def Con from 0.007665 to 0.00766501
Heightened Def Con from 0.00767052 to 0.00767052
Heightened Def Con from 0.007675 to 0.00767501
Heightened Def Con from 0.00768053 to 0.00768053
Heightened Def Con from 0.007685 to 0.00768501
Heightened Def Con from 0.00769053 to 0.00769053
Heightened Def Con from 0.007695 to 0.00769501
[...]
Heightened Def Con from 0.014635 to 0.014635
Heightened Def Con from 0.0146404 to 0.0146404
Heightened Def Con from 0.014645 to 0.014645
Heightened Def Con from 0.0146505 to 0.0146505
Heightened Def Con from 0.014655 to 0.014655
Heightened Def Con from 0.0146605 to 0.0146605
Heightened Def Con from 0.014665 to 0.014665
Heightened Def Con from 0.0146705 to 0.0146705
Heightened Def Con from 0.014675 to 0.014675
Heightened Def Con from 0.0146804 to 0.0146804
Heightened Def Con from 0.014685 to 0.014685
Heightened Def Con from 0.0146905 to 0.0146905
Heightened Def Con from 0.014695 to 0.014695
Heightened Def Con from 0.0147004 to 0.0147004
Heightened Def Con from 0.014705 to 0.014705
Heightened Def Con from 0.0147105 to 0.0147105
Heightened Def Con from 0.014715 to 0.014715
Heightened Def Con from 0.0147204 to 0.0147204
Heightened Def Con from 0.014725 to 0.014725
Heightened Def Con from 0.0147305 to 0.0147305
Heightened Def Con from 0.014735 to 0.014735
Heightened Def Con from 0.0147404 to 0.0147404
Heightened Def Con from 0.014745 to 0.014745
Heightened Def Con from 0.0147505 to 0.0147505
Heightened Def Con from 0.014755 to 0.014755
Heightened Def Con from 0.0147604 to 0.0147604
Heightened Def Con from 0.014765 to 0.014765
Heightened Def Con from 0.0147705 to 0.0147705
Heightened Def Con from 0.014775 to 0.014775
Heightened Def Con from 0.0147804 to 0.0147804
Heightened Def Con from 0.014785 to 0.014785
Heightened Def Con from 0.0147905 to 0.0147905
Heightened Def Con from 0.014795 to 0.014795
Heightened Def Con from 0.0148004 to 0.0148004
Heightened Def Con from 0.014805 to 0.014805
Heightened Def Con from 0.0148105 to 0.0148105
Heightened Def Con from 0.014815 to 0.014815
Heightened Def Con from 0.0148204 to 0.0148204
Heightened Def Con from 0.014825 to 0.014825
Heightened Def Con from 0.0148305 to 0.0148305
Heightened Def Con from 0.014835 to 0.014835
Heightened Def Con from 0.0148404 to 0.0148404
Heightened Def Con from 0.014845 to 0.014845
Heightened Def Con from 0.0148505 to 0.0148505
Heightened Def Con from 0.014855 to 0.014855
Heightened Def Con from 0.0148605 to 0.0148605
Heightened Def Con from 0.014865 to 0.014865
Heightened Def Con from 0.0148704 to 0.0148704
Heightened Def Con from 0.014875 to 0.014875
Heightened Def Con from 0.0148805 to 0.0148805
Heightened Def Con from 0.014885 to 0.014885
Heightened Def Con from 0.0148904 to 0.0148904
Heightened Def Con from 0.014895 to 0.014895
Heightened Def Con from 0.0149005 to 0.0149005
Heightened Def Con from 0.014905 to 0.014905
Heightened Def Con from 0.0149104 to 0.0149104
Heightened Def Con from 0.014915 to 0.014915
Heightened Def Con from 0.0149205 to 0.0149205
Heightened Def Con from 0.014925 to 0.014925
Heightened Def Con from 0.0149304 to 0.0149304
Heightened Def Con from 0.014935 to 0.014935
Heightened Def Con from 0.0149405 to 0.0149405
Heightened Def Con from 0.014945 to 0.014945
Heightened Def Con from 0.0149504 to 0.0149504
Heightened Def Con from 0.014955 to 0.014955
Heightened Def Con from 0.0149605 to 0.0149605
Heightened Def Con from 0.014965 to 0.014965
Heightened Def Con from 0.0149704 to 0.0149704
Heightened Def Con from 0.014975 to 0.014975
Heightened Def Con from 0.0149805 to 0.0149805
Heightened Def Con from 0.014985 to 0.014985
Heightened Def Con from 0.0149905 to 0.0149905
Heightened Def Con from 0.014995 to 0.014995
Heightened Def Con from 0.0150004 to 0.0150004
Heightened Def Con from 0.015005 to 0.015005
Heightened Def Con from 0.0150104 to 0.0150104
Heightened Def Con from 0.015015 to 0.015015
Heightened Def Con from 0.0150204 to 0.0150204
Heightened Def Con from 0.015025 to 0.015025
Heightened Def Con from 0.0150304 to 0.0150304
Heightened Def Con from 0.015035 to 0.015035
Heightened Def Con from 0.0150405 to 0.0150405
Heightened Def Con from 0.015045 to 0.015045
Heightened Def Con from 0.0150504 to 0.0150504
Heightened Def Con from 0.015055 to 0.015055
Heightened Def Con from 0.0150604 to 0.0150604
Heightened Def Con from 0.015065 to 0.015065
Heightened Def Con from 0.0150704 to 0.0150704
Heightened Def Con from 0.015075 to 0.015075
Heightened Def Con from 0.0150804 to 0.0150804
Heightened Def Con from 0.015085 to 0.015085
Heightened Def Con from 0.0150905 to 0.0150905
Heightened Def Con from 0.015095 to 0.015095
Heightened Def Con from 0.0151004 to 0.0151004
Heightened Def Con from 0.015105 to 0.015105
Heightened Def Con from 0.0151104 to 0.0151104
Heightened Def Con from 0.015115 to 0.015115
Heightened Def Con from 0.0151204 to 0.0151204
Heightened Def Con from 0.015125 to 0.015125
Heightened Def Con from 0.0151304 to 0.0151304
Heightened Def Con from 0.015135 to 0.015135
Heightened Def Con from 0.0151404 to 0.0151404
Heightened Def Con from 0.015145 to 0.015145
Heightened Def Con from 0.0151505 to 0.0151505
Heightened Def Con from 0.015155 to 0.015155
Heightened Def Con from 0.015162 to 0.015162
Heightened Def Con from 0.015165 to 0.015165
Heightened Def Con from 0.0151704 to 0.0151704
Heightened Def Con from 0.015175 to 0.015175
Heightened Def Con from 0.0151804 to 0.0151804
Heightened Def Con from 0.015185 to 0.015185
Heightened Def Con from 0.0151904 to 0.0151904
Heightened Def Con from 0.015195 to 0.015195
Heightened Def Con from 0.0152005 to 0.0152005
Heightened Def Con from 0.015205 to 0.015205
Heightened Def Con from 0.0152104 to 0.0152104
Heightened Def Con from 0.015215 to 0.015215
Heightened Def Con from 0.0152205 to 0.0152205
Heightened Def Con from 0.015225 to 0.015225
Heightened Def Con from 0.0152305 to 0.0152305
Heightened Def Con from 0.015235 to 0.015235
Heightened Def Con from 0.0152404 to 0.0152404
Heightened Def Con from 0.015245 to 0.015245
Heightened Def Con from 0.0152504 to 0.0152504
Heightened Def Con from 0.015255 to 0.015255
Heightened Def Con from 0.0152604 to 0.0152604
Heightened Def Con from 0.015265 to 0.015265
Heightened Def Con from 0.0152704 to 0.0152704
Heightened Def Con from 0.015275 to 0.015275
Heightened Def Con from 0.0152804 to 0.0152804
Heightened Def Con from 0.015285 to 0.015285
Heightened Def Con from 0.0152905 to 0.0152905
Heightened Def Con from 0.015295 to 0.015295
Heightened Def Con from 0.015301 to 0.015301
Heightened Def Con from 0.015305 to 0.015305
Heightened Def Con from 0.01531 to 0.01531
Heightened Def Con from 0.015315 to 0.015315
Heightened Def Con from 0.0153204 to 0.0153204
Heightened Def Con from 0.015325 to 0.015325
Heightened Def Con from 0.0153304 to 0.0153304
Heightened Def Con from 0.015335 to 0.015335
Heightened Def Con from 0.0153404 to 0.0153404
Heightened Def Con from 0.015345 to 0.015345
Heightened Def Con from 0.0153504 to 0.0153504
Heightened Def Con from 0.015355 to 0.015355
Heightened Def Con from 0.0153604 to 0.0153604
Heightened Def Con from 0.0153653 to 0.0153653
Heightened Def Con from 0.0153705 to 0.0153705
Heightened Def Con from 0.015375 to 0.015375
Heightened Def Con from 0.0153805 to 0.0153805
Heightened Def Con from 0.015385 to 0.015385
Heightened Def Con from 0.0153905 to 0.0153905
Heightened Def Con from 0.015395 to 0.015395
Heightened Def Con from 0.0154005 to 0.0154005
Heightened Def Con from 0.015405 to 0.015405
Heightened Def Con from 0.0154104 to 0.0154104
Heightened Def Con from 0.015415 to 0.015415
Heightened Def Con from 0.0154204 to 0.0154204
Heightened Def Con from 0.015425 to 0.015425
Heightened Def Con from 0.0154304 to 0.0154304
Heightened Def Con from 0.015435 to 0.015435
Heightened Def Con from 0.0154404 to 0.0154404
Heightened Def Con from 0.015445 to 0.015445
Heightened Def Con from 0.0154504 to 0.0154504
Heightened Def Con from 0.015455 to 0.015455
Heightened Def Con from 0.0154604 to 0.0154604
Heightened Def Con from 0.015465 to 0.015465
Heightened Def Con from 0.0154704 to 0.0154704
Heightened Def Con from 0.015475 to 0.015475
Heightened Def Con from 0.0154804 to 0.0154804
Heightened Def Con from 0.015485 to 0.015485
Heightened Def Con from 0.0154904 to 0.0154904
Heightened Def Con from 0.015495 to 0.015495
Heightened Def Con from 0.0155004 to 0.0155004
Heightened Def Con from 0.015505 to 0.015505
Heightened Def Con from 0.0155104 to 0.0155104
Heightened Def Con from 0.015515 to 0.015515
Heightened Def Con from 0.0155204 to 0.0155204
Heightened Def Con from 0.015525 to 0.015525
Heightened Def Con from 0.0155305 to 0.0155305
Heightened Def Con from 0.015535 to 0.015535
Heightened Def Con from 0.0155404 to 0.0155404
Heightened Def Con from 0.015545 to 0.015545
Heightened Def Con from 0.0155505 to 0.0155505
Heightened Def Con from 0.015555 to 0.015555
Heightened Def Con from 0.0155604 to 0.0155604
Heightened Def Con from 0.015565 to 0.015565
Heightened Def Con from 0.0155704 to 0.0155704
Heightened Def Con from 0.015575 to 0.015575
Heightened Def Con from 0.0155804 to 0.0155804
Heightened Def Con from 0.015585 to 0.015585
Heightened Def Con from 0.0155904 to 0.0155904
Heightened Def Con from 0.015595 to 0.015595
Heightened Def Con from 0.0156004 to 0.0156004
Heightened Def Con from 0.015605 to 0.015605
Heightened Def Con from 0.0156104 to 0.0156104
Heightened Def Con from 0.015615 to 0.015615
Heightened Def Con from 0.0156205 to 0.0156205
Heightened Def Con from 0.015625 to 0.015625
Heightened Def Con from 0.0156304 to 0.0156304
Heightened Def Con from 0.015635 to 0.015635
Heightened Def Con from 0.01564 to 0.01564
Heightened Def Con from 0.015645 to 0.015645
Heightened Def Con from 0.0156504 to 0.0156504
Heightened Def Con from 0.015655 to 0.015655
Heightened Def Con from 0.0156604 to 0.0156604
Heightened Def Con from 0.015665 to 0.015665
Heightened Def Con from 0.0156704 to 0.0156704
Heightened Def Con from 0.015675 to 0.015675
Heightened Def Con from 0.0156804 to 0.0156804
Heightened Def Con from 0.015685 to 0.015685
Heightened Def Con from 0.0156904 to 0.0156904
Heightened Def Con from 0.015695 to 0.015695
Heightened Def Con from 0.0157004 to 0.0157004
Heightened Def Con from 0.0157062 to 0.0157062
Heightened Def Con from 0.0157105 to 0.0157105
Heightened Def Con from 0.015715 to 0.015715
Heightened Def Con from 0.0157204 to 0.0157204
Heightened Def Con from 0.015725 to 0.015725
Heightened Def Con from 0.0157304 to 0.0157304
Heightened Def Con from 0.015735 to 0.015735
Heightened Def Con from 0.0157404 to 0.0157404
Heightened Def Con from 0.015745 to 0.015745
Heightened Def Con from 0.0157504 to 0.0157504
Heightened Def Con from 0.015755 to 0.015755
Heightened Def Con from 0.0157604 to 0.0157604
Heightened Def Con from 0.015765 to 0.015765
Heightened Def Con from 0.0157704 to 0.0157704
Heightened Def Con from 0.015775 to 0.015775
Heightened Def Con from 0.0157804 to 0.0157804
Heightened Def Con from 0.015785 to 0.015785
Heightened Def Con from 0.0157905 to 0.0157905
Heightened Def Con from 0.015795 to 0.015795
Heightened Def Con from 0.0158 to 0.0158
Heightened Def Con from 0.015805 to 0.015805
Heightened Def Con from 0.0158104 to 0.0158104
Heightened Def Con from 0.015815 to 0.015815
Heightened Def Con from 0.0158204 to 0.0158204
Heightened Def Con from 0.015825 to 0.015825
Heightened Def Con from 0.0158304 to 0.0158304
Heightened Def Con from 0.015835 to 0.015835
Heightened Def Con from 0.0158404 to 0.0158404
Heightened Def Con from 0.015845 to 0.015845
Heightened Def Con from 0.0158504 to 0.0158504
Heightened Def Con from 0.015855 to 0.015855
Heightened Def Con from 0.0158605 to 0.0158605
Heightened Def Con from 0.015865 to 0.015865
Heightened Def Con from 0.0158704 to 0.0158704
Heightened Def Con from 0.015875 to 0.015875
Heightened Def Con from 0.0158805 to 0.0158805
Heightened Def Con from 0.015885 to 0.015885
Heightened Def Con from 0.0158904 to 0.0158904
Heightened Def Con from 0.015895 to 0.015895
Heightened Def Con from 0.0159021 to 0.0159021
Heightened Def Con from 0.015905 to 0.015905
Heightened Def Con from 0.0159121 to 0.0159121
Heightened Def Con from 0.015915 to 0.015915
Heightened Def Con from 0.0159204 to 0.0159204
Heightened Def Con from 0.015925 to 0.015925
Heightened Def Con from 0.0159305 to 0.0159305
Heightened Def Con from 0.015935 to 0.015935
Heightened Def Con from 0.015942 to 0.015942
Heightened Def Con from 0.015945 to 0.015945
Heightened Def Con from 0.0159506 to 0.0159506
Heightened Def Con from 0.015955 to 0.015955
Heightened Def Con from 0.0159605 to 0.0159605
Heightened Def Con from 0.015965 to 0.015965
Heightened Def Con from 0.0159704 to 0.0159704
Heightened Def Con from 0.015975 to 0.015975
Heightened Def Con from 0.0159804 to 0.0159804
Heightened Def Con from 0.015985 to 0.015985
Heightened Def Con from 0.0159904 to 0.0159904
Heightened Def Con from 0.015995 to 0.015995
Heightened Def Con from 0.0160004 to 0.0160004
Heightened Def Con from 0.016005 to 0.016005
Heightened Def Con from 0.0160104 to 0.0160104
Heightened Def Con from 0.016015 to 0.016015
Heightened Def Con from 0.0160204 to 0.0160204
Heightened Def Con from 0.016025 to 0.016025
Heightened Def Con from 0.0160307 to 0.0160307
Heightened Def Con from 0.016035 to 0.016035
Heightened Def Con from 0.0160404 to 0.0160404
Heightened Def Con from 0.016045 to 0.016045
Heightened Def Con from 0.0160504 to 0.0160504
Heightened Def Con from 0.016055 to 0.016055
Heightened Def Con from 0.0160604 to 0.0160604
Heightened Def Con from 0.016065 to 0.016065
Heightened Def Con from 0.0160704 to 0.0160704
Heightened Def Con from 0.016075 to 0.016075
Heightened Def Con from 0.0160804 to 0.0160804
Heightened Def Con from 0.016085 to 0.016085
Heightened Def Con from 0.0160905 to 0.0160905
Heightened Def Con from 0.016095 to 0.016095
Heightened Def Con from 0.0161005 to 0.0161005
Heightened Def Con from 0.016105 to 0.016105
Heightened Def Con from 0.0161119 to 0.0161119
Heightened Def Con from 0.016115 to 0.016115
Heightened Def Con from 0.0161204 to 0.0161204
Heightened Def Con from 0.016125 to 0.016125
Heightened Def Con from 0.016132 to 0.016132
Heightened Def Con from 0.016135 to 0.016135
Heightened Def Con from 0.0161404 to 0.0161404
Heightened Def Con from 0.016145 to 0.016145
Heightened Def Con from 0.0161504 to 0.0161504
Heightened Def Con from 0.016155 to 0.016155
Heightened Def Con from 0.0161604 to 0.0161604
Heightened Def Con from 0.016165 to 0.016165
Heightened Def Con from 0.0161704 to 0.0161704
Heightened Def Con from 0.016175 to 0.016175
Heightened Def Con from 0.0161804 to 0.0161804
Heightened Def Con from 0.016185 to 0.016185
Heightened Def Con from 0.0161904 to 0.0161904
Heightened Def Con from 0.016195 to 0.016195
Heightened Def Con from 0.0162 to 0.0162
Heightened Def Con from 0.016205 to 0.016205
Heightened Def Con from 0.0162104 to 0.0162104
Heightened Def Con from 0.016215 to 0.016215
Heightened Def Con from 0.0162205 to 0.0162205
Heightened Def Con from 0.016225 to 0.016225
Heightened Def Con from 0.0162321 to 0.0162321
Heightened Def Con from 0.016235 to 0.016235
Heightened Def Con from 0.0162405 to 0.0162405
Heightened Def Con from 0.016245 to 0.016245
Heightened Def Con from 0.0162505 to 0.0162505
Heightened Def Con from 0.016255 to 0.016255
Heightened Def Con from 0.0162604 to 0.0162604
Heightened Def Con from 0.016265 to 0.016265
Heightened Def Con from 0.0162705 to 0.0162705
Heightened Def Con from 0.016275 to 0.016275
Heightened Def Con from 0.0162805 to 0.0162805
Heightened Def Con from 0.016285 to 0.016285
Heightened Def Con from 0.0162905 to 0.0162905
Heightened Def Con from 0.016295 to 0.016295
Heightened Def Con from 0.0163011 to 0.0163011
Heightened Def Con from 0.016305 to 0.016305
Heightened Def Con from 0.0163105 to 0.0163105
Heightened Def Con from 0.016315 to 0.016315
Heightened Def Con from 0.0163204 to 0.0163204
Heightened Def Con from 0.016325 to 0.016325
Heightened Def Con from 0.01633 to 0.01633
Heightened Def Con from 0.016335 to 0.016335
Heightened Def Con from 0.016341 to 0.016341
Heightened Def Con from 0.016345 to 0.016345
Heightened Def Con from 0.0163505 to 0.0163505
Heightened Def Con from 0.016355 to 0.016355
Heightened Def Con from 0.0163604 to 0.0163604
Heightened Def Con from 0.016365 to 0.016365
Heightened Def Con from 0.0163705 to 0.0163705
Heightened Def Con from 0.016375 to 0.016375
Heightened Def Con from 0.0163804 to 0.0163804
Heightened Def Con from 0.016385 to 0.016385
Heightened Def Con from 0.01639 to 0.01639
Heightened Def Con from 0.016395 to 0.016395
Heightened Def Con from 0.0164005 to 0.0164005
Heightened Def Con from 0.016405 to 0.016405
Heightened Def Con from 0.0164104 to 0.0164104
Heightened Def Con from 0.016415 to 0.016415
Heightened Def Con from 0.0164205 to 0.0164205
Heightened Def Con from 0.016425 to 0.016425
Heightened Def Con from 0.016435 to 0.016435
Heightened Def Con from 0.0164406 to 0.0164406
Heightened Def Con from 0.016445 to 0.016445
Heightened Def Con from 0.0164505 to 0.0164505
Heightened Def Con from 0.016455 to 0.016455
Heightened Def Con from 0.0164604 to 0.0164604
Heightened Def Con from 0.016465 to 0.016465
Heightened Def Con from 0.0164704 to 0.0164704
Heightened Def Con from 0.016475 to 0.016475
Heightened Def Con from 0.0164804 to 0.0164804
Heightened Def Con from 0.016485 to 0.016485
Heightened Def Con from 0.0164904 to 0.0164904
Heightened Def Con from 0.016495 to 0.016495
Heightened Def Con from 0.0165005 to 0.0165005
Heightened Def Con from 0.016505 to 0.016505
Heightened Def Con from 0.0165105 to 0.0165105
Heightened Def Con from 0.016515 to 0.016515
Heightened Def Con from 0.0165205 to 0.0165205
Heightened Def Con from 0.016525 to 0.016525
Heightened Def Con from 0.01653 to 0.01653
Heightened Def Con from 0.016535 to 0.016535
Heightened Def Con from 0.0165405 to 0.0165405
Heightened Def Con from 0.016545 to 0.016545
Heightened Def Con from 0.0165504 to 0.0165504
Heightened Def Con from 0.016555 to 0.016555
Heightened Def Con from 0.0165604 to 0.0165604
Heightened Def Con from 0.016565 to 0.016565
Heightened Def Con from 0.0165705 to 0.0165705
Heightened Def Con from 0.0165762 to 0.0165762
Heightened Def Con from 0.0165805 to 0.0165805
Heightened Def Con from 0.016585 to 0.016585
Heightened Def Con from 0.0165904 to 0.0165904
Heightened Def Con from 0.016595 to 0.016595
Heightened Def Con from 0.0166005 to 0.0166005
Heightened Def Con from 0.016605 to 0.016605
Heightened Def Con from 0.0166105 to 0.0166105
Heightened Def Con from 0.016615 to 0.016615
Heightened Def Con from 0.0166204 to 0.0166204
Heightened Def Con from 0.016625 to 0.016625
Heightened Def Con from 0.0166305 to 0.0166305
Heightened Def Con from 0.016635 to 0.016635
Heightened Def Con from 0.0166405 to 0.0166405
Heightened Def Con from 0.016645 to 0.016645
Heightened Def Con from 0.0166505 to 0.0166505
Heightened Def Con from 0.016655 to 0.016655
Heightened Def Con from 0.0166604 to 0.0166604
Heightened Def Con from 0.016665 to 0.016665
Heightened Def Con from 0.0166705 to 0.0166705
Heightened Def Con from 0.016675 to 0.016675
Heightened Def Con from 0.0166804 to 0.0166804
Heightened Def Con from 0.016685 to 0.016685
Heightened Def Con from 0.0166904 to 0.0166904
Heightened Def Con from 0.016695 to 0.016695
Heightened Def Con from 0.0167007 to 0.0167007
Heightened Def Con from 0.016705 to 0.016705
Heightened Def Con from 0.0167104 to 0.0167104
Heightened Def Con from 0.016715 to 0.016715
Heightened Def Con from 0.0167204 to 0.0167204
Heightened Def Con from 0.016725 to 0.016725
Heightened Def Con from 0.0167321 to 0.0167321
Heightened Def Con from 0.016735 to 0.016735
Heightened Def Con from 0.0167404 to 0.0167404
Heightened Def Con from 0.016745 to 0.016745
Heightened Def Con from 0.0167504 to 0.0167504
Heightened Def Con from 0.016755 to 0.016755
Heightened Def Con from 0.0167621 to 0.0167621
Heightened Def Con from 0.016765 to 0.016765

Date: Wed Apr 03 01:02:27 2019
Total elapsed time: 43.938 seconds.

tnom = 27
temp = 27
method = modified trap
totiter = 2347585
traniter = 2347585
tranpoints = 682309
accept = 458692
rejected = 226978
matrix size = 106
fillins = 120
solver = Normal
Thread vector: 26.2/18.7[2] 4.5/4.7[1] 4.8/5.7[1] 2.3/4.8[1]  2592/500
Matrix Compiler1: 11.07 KB object code size  8.2/4.8/[3.1]
Matrix Compiler2: 10.43 KB object code size  3.6/4.6/[2.6]

